*SPEF "ieee 1481-1999"
*DESIGN "pes_brg"
*DATE "11:11:11 Fri 11 11, 1111"
*VENDOR "OpenRCX"
*PROGRAM "Parallel Extraction"
*VERSION "1.0"
*DESIGN_FLOW "NAME_SCOPE LOCAL" "PIN_CAP NONE"
*DIVIDER /
*DELIMITER :
*BUS_DELIMITER []
*T_UNIT 1 NS
*C_UNIT 1 PF
*R_UNIT 1 OHM
*L_UNIT 1 HENRY

*NAME_MAP
*3 clk
*4 clkout
*5 reset
*6 sel[0]
*7 sel[1]
*8 _000_
*9 _001_
*10 _002_
*11 _003_
*12 _004_
*13 _005_
*14 _006_
*15 _007_
*16 _008_
*17 _009_
*18 _010_
*19 _011_
*20 _012_
*21 _013_
*22 _014_
*23 _015_
*24 _016_
*25 _017_
*26 _018_
*27 _019_
*28 _020_
*29 _021_
*30 _022_
*31 _023_
*32 _024_
*33 _025_
*34 _026_
*35 _027_
*36 _028_
*37 _029_
*38 _030_
*39 _031_
*40 _032_
*41 _033_
*42 _034_
*43 _035_
*44 _036_
*45 _037_
*46 _038_
*47 _039_
*48 _040_
*49 _041_
*50 _042_
*51 _043_
*52 _044_
*53 _045_
*54 _046_
*55 _047_
*56 _048_
*57 _049_
*58 _050_
*59 _051_
*60 _052_
*61 _053_
*62 _054_
*63 _055_
*64 _056_
*65 _057_
*66 _058_
*67 _059_
*68 _060_
*69 _061_
*70 _062_
*71 _063_
*72 _064_
*73 _065_
*74 _066_
*75 _067_
*76 _068_
*77 _069_
*78 _070_
*79 _071_
*80 _072_
*81 _073_
*82 _074_
*83 _075_
*84 _076_
*85 _077_
*86 _078_
*87 _079_
*88 _080_
*89 _081_
*90 _082_
*91 _083_
*92 _084_
*93 _085_
*94 _086_
*95 _087_
*96 _088_
*97 _089_
*98 _090_
*99 _091_
*100 clknet_0_clk
*101 clknet_1_0__leaf_clk
*102 clknet_1_1__leaf_clk
*103 cnt1\[0\]
*104 cnt1\[1\]
*105 cnt1\[2\]
*106 cnt1\[3\]
*107 cnt1\[4\]
*108 cnt1\[5\]
*109 cnt2\[0\]
*110 cnt2\[1\]
*111 cnt3\[0\]
*112 cnt3\[1\]
*113 cnt3\[2\]
*114 cnt4\[0\]
*115 cnt4\[1\]
*116 cnt4\[2\]
*117 cnt4\[3\]
*118 net1
*119 net10
*120 net12
*121 net13
*122 net14
*123 net15
*124 net17
*125 net18
*126 net2
*127 net20
*128 net21
*129 net22
*130 net23
*131 net24
*132 net28
*133 net3
*134 net4
*135 net5
*136 net6
*137 net7
*138 net8
*139 net9
*140 FILLER_0_0_46
*141 FILLER_0_0_82
*142 FILLER_0_10_27
*143 FILLER_0_10_61
*144 FILLER_0_10_81
*145 FILLER_0_11_12
*146 FILLER_0_11_41
*147 FILLER_0_11_65
*148 FILLER_0_12_29
*149 FILLER_0_12_3
*150 FILLER_0_13_23
*151 FILLER_0_13_3
*152 FILLER_0_13_40
*153 FILLER_0_13_51
*154 FILLER_0_13_55
*155 FILLER_0_13_65
*156 FILLER_0_1_57
*157 FILLER_0_1_82
*158 FILLER_0_1_9
*159 FILLER_0_3_3
*160 FILLER_0_4_29
*161 FILLER_0_4_3
*162 FILLER_0_4_41
*163 FILLER_0_4_70
*164 FILLER_0_4_79
*165 FILLER_0_5_54
*166 FILLER_0_5_78
*167 FILLER_0_6_11
*168 FILLER_0_6_26
*169 FILLER_0_6_3
*170 FILLER_0_6_58
*171 FILLER_0_6_73
*172 FILLER_0_7_16
*173 FILLER_0_9_12
*174 FILLER_0_9_55
*175 FILLER_0_9_82
*176 PHY_0
*177 PHY_1
*178 PHY_10
*179 PHY_11
*180 PHY_12
*181 PHY_13
*182 PHY_14
*183 PHY_15
*184 PHY_16
*185 PHY_17
*186 PHY_18
*187 PHY_19
*188 PHY_2
*189 PHY_20
*190 PHY_21
*191 PHY_22
*192 PHY_23
*193 PHY_24
*194 PHY_25
*195 PHY_26
*196 PHY_27
*197 PHY_3
*198 PHY_4
*199 PHY_5
*200 PHY_6
*201 PHY_7
*202 PHY_8
*203 PHY_9
*204 TAP_28
*205 TAP_29
*206 TAP_30
*207 TAP_31
*208 TAP_32
*209 TAP_33
*210 TAP_34
*211 TAP_35
*212 TAP_36
*213 TAP_37
*214 TAP_38
*215 TAP_39
*216 TAP_40
*217 TAP_41
*218 TAP_42
*219 TAP_43
*220 _092_
*221 _093_
*222 _094_
*223 _095_
*224 _096_
*225 _097_
*226 _098_
*227 _099_
*228 _100_
*229 _101_
*230 _102_
*231 _103_
*232 _104_
*233 _105_
*234 _106_
*235 _107_
*236 _108_
*237 _109_
*238 _110_
*239 _111_
*240 _112_
*241 _113_
*242 _114_
*243 _115_
*244 _116_
*245 _117_
*246 _118_
*247 _119_
*248 _120_
*249 _121_
*250 _122_
*251 _123_
*252 _124_
*253 _125_
*254 _126_
*255 _127_
*256 _128_
*257 _129_
*258 _130_
*259 _131_
*260 _132_
*261 _133_
*262 _134_
*263 _135_
*264 _136_
*265 _137_
*266 _138_
*267 _139_
*268 _140_
*269 _141_
*270 _142_
*271 _143_
*272 _144_
*273 _145_
*274 _146_
*275 _147_
*276 _148_
*277 _149_
*278 _150_
*279 _151_
*280 _152_
*281 _153_
*282 _154_
*283 _155_
*284 _156_
*285 _157_
*286 _158_
*287 _159_
*288 _160_
*289 _161_
*290 _162_
*291 _163_
*292 _164_
*293 _165_
*294 _166_
*295 _167_
*296 _168_
*297 _169_
*298 _170_
*299 _171_
*300 _172_
*301 _173_
*302 _174_
*303 _175_
*304 _176_
*305 _177_
*306 _178_
*307 _179_
*308 _180_
*309 _181_
*310 _182_
*311 _183_
*312 _184_
*313 _185_
*314 _186_
*315 _187_
*316 _188_
*317 _189_
*318 _190_
*319 _191_
*320 _192_
*321 _193_
*322 _194_
*323 _195_
*324 _196_
*325 _197_
*326 _198_
*327 _199_
*328 clkbuf_0_clk
*329 clkbuf_1_0__f_clk
*330 clkbuf_1_1__f_clk
*331 hold10
*332 hold11
*333 hold13
*334 hold14
*335 hold16
*336 hold17
*337 hold18
*338 hold19
*339 hold20
*340 hold24
*341 hold8
*342 hold9
*343 input1
*344 input2
*345 input3
*346 output4
*347 rebuffer1
*348 rebuffer2
*349 rebuffer3
*350 rebuffer4
*351 rebuffer5
*352 rebuffer6

*PORTS
clk I
clkout O
reset I
sel[0] I
sel[1] I

*D_NET *3 0.00492055
*CONN
*P clk I
*I *328:A I *D sky130_fd_sc_hd__clkbuf_16
*CAP
1 clk 0.00163252
2 *328:A 0.00163252
3 *328:A *227:A_N 3.18891e-05
4 *328:A *264:A2 4.66108e-05
5 *328:A *264:B1 0.00015841
6 *328:A *268:B1 0.000195187
7 *328:A *275:A4 0.000113222
8 *328:A *319:D 7.26833e-05
9 *328:A *30:18 2.28398e-05
10 *328:A *61:8 9.24244e-05
11 *328:A *62:24 1.26064e-05
12 *328:A *78:16 0.000426586
13 *328:A *93:6 4.66108e-05
14 *328:A *102:25 2.47547e-05
15 *328:A *102:38 6.07987e-05
16 *328:A *108:14 0.000113822
17 *328:A *109:56 0.00023706
*RES
1 clk *328:A 20.3302 
*END

*D_NET *4 0.00163236
*CONN
*P clkout O
*I *346:X O *D sky130_fd_sc_hd__clkbuf_4
*CAP
1 clkout 0.000808416
2 *346:X 0.000808416
3 clkout *101:12 1.55253e-05
*RES
1 *346:X clkout 17.055 
*END

*D_NET *5 0.000909678
*CONN
*P reset I
*I *343:A I *D sky130_fd_sc_hd__buf_1
*CAP
1 reset 0.000379197
2 *343:A 0.000379197
3 *343:A *113:25 0.000151283
*RES
1 reset *343:A 8.9037 
*END

*D_NET *6 0.00159889
*CONN
*P sel[0] I
*I *344:A I *D sky130_fd_sc_hd__buf_1
*CAP
1 sel[0] 0.000687943
2 *344:A 0.000687943
3 *344:A *226:B 4.95138e-05
4 *344:A *269:A1 2.03318e-05
5 *344:A *347:A 4.77757e-05
6 *344:A *350:A 7.08554e-05
7 *344:A *60:10 2.86975e-05
8 *344:A *103:81 5.83121e-06
*RES
1 sel[0] *344:A 15.435 
*END

*D_NET *7 0.00769447
*CONN
*P sel[1] I
*I *345:A I *D sky130_fd_sc_hd__buf_1
*CAP
1 sel[1] 0.00267737
2 *345:A 0.00267737
3 *345:A *232:B 0.00146929
4 *345:A *239:C 0
5 *345:A *243:A2 9.05814e-05
6 *345:A *243:B1 0
7 *345:A *244:A 0.000191096
8 *345:A *244:B 0
9 *345:A *252:B 7.09256e-05
10 *345:A *254:A 0.00036575
11 *345:A *346:A 1.56002e-05
12 *345:A *116:44 0.000121531
13 *345:A *133:26 1.4952e-05
*RES
1 sel[1] *345:A 17.3584 
*END

*D_NET *8 0.00055527
*CONN
*I *312:D I *D sky130_fd_sc_hd__dfxtp_2
*I *224:Y O *D sky130_fd_sc_hd__a21oi_1
*CAP
1 *312:D 7.64516e-05
2 *224:Y 7.64516e-05
3 *312:D *252:A 7.53592e-05
4 *312:D *254:A 0.000105149
5 *312:D *260:A1 8.73147e-06
6 *312:D *101:51 7.36836e-05
7 *312:D *101:59 0.000139443
*RES
1 *224:Y *312:D 9.76875 
*END

*D_NET *9 0.000933223
*CONN
*I *313:D I *D sky130_fd_sc_hd__dfxtp_1
*I *234:X O *D sky130_fd_sc_hd__a22o_1
*CAP
1 *313:D 0.00029481
2 *234:X 0.00029481
3 *313:D *221:B 2.32394e-05
4 *313:D *221:C 0.000118742
5 *313:D *234:A1 6.12832e-05
6 *313:D *234:A2 7.71002e-05
7 *313:D *313:CLK 1.54665e-05
8 *313:D *315:CLK 4.77719e-05
*RES
1 *234:X *313:D 13.08 
*END

*D_NET *10 0.00158192
*CONN
*I *314:D I *D sky130_fd_sc_hd__dfxtp_1
*I *240:Y O *D sky130_fd_sc_hd__a2bb2oi_1
*CAP
1 *314:D 0.000353917
2 *240:Y 0.000353917
3 *314:D *221:A 0.000273421
4 *314:D *237:A2 0
5 *314:D *240:B1 6.98629e-05
6 *314:D *253:C1 0
7 *314:D *69:14 8.52883e-05
8 *314:D *69:18 8.40213e-05
9 *314:D *69:56 8.80739e-05
10 *314:D *101:70 0.000273421
*RES
1 *240:Y *314:D 14.4038 
*END

*D_NET *11 0.000642353
*CONN
*I *315:D I *D sky130_fd_sc_hd__dfxtp_1
*I *245:X O *D sky130_fd_sc_hd__a32o_1
*CAP
1 *315:D 0.000228259
2 *245:X 0.000228259
3 *315:D *234:A1 4.35857e-05
4 *315:D *234:A2 2.56752e-06
5 *315:D *234:B2 7.45772e-05
6 *315:D *241:B 0
7 *315:D *245:A2 5.05774e-06
8 *315:D *245:A3 6.0047e-05
*RES
1 *245:X *315:D 10.65 
*END

*D_NET *12 0.000431625
*CONN
*I *316:D I *D sky130_fd_sc_hd__dfxtp_1
*I *260:Y O *D sky130_fd_sc_hd__a22oi_1
*CAP
1 *316:D 0.000129693
2 *260:Y 0.000129693
3 *316:D *254:A 1.40723e-06
4 *316:D *260:A2 5.20437e-05
5 *316:D *316:CLK 9.03508e-06
6 *316:D *101:51 0.000109753
*RES
1 *260:Y *316:D 5.765 
*END

*D_NET *13 0.000354514
*CONN
*I *317:D I *D sky130_fd_sc_hd__dfxtp_4
*I *263:X O *D sky130_fd_sc_hd__clkbuf_1
*CAP
1 *317:D 0.000119949
2 *263:X 0.000119949
3 *317:D *102:77 0.000114615
*RES
1 *263:X *317:D 5.51 
*END

*D_NET *14 0.000876144
*CONN
*I *318:D I *D sky130_fd_sc_hd__dfxtp_2
*I *267:X O *D sky130_fd_sc_hd__a32o_1
*CAP
1 *318:D 0.000215092
2 *267:X 0.000215092
3 *318:D *262:A0 0.000132821
4 *318:D *267:A2 9.05535e-05
5 *318:D *102:68 0.000111337
6 *318:D *102:77 2.0187e-05
7 *318:D *103:12 9.10613e-05
*RES
1 *267:X *318:D 11.7338 
*END

*D_NET *15 0.00123776
*CONN
*I *319:D I *D sky130_fd_sc_hd__dfxtp_2
*I *270:X O *D sky130_fd_sc_hd__a2bb2o_1
*CAP
1 *319:D 0.000263965
2 *270:X 0.000263965
3 *319:D *268:A2 7.03276e-05
4 *319:D *268:B1 6.41825e-07
5 *319:D *270:A1_N 8.46818e-05
6 *319:D *273:B1 0.0001788
7 *319:D *351:A 1.43622e-05
8 *319:D *102:38 9.12494e-06
9 *319:D *102:55 7.63699e-05
10 *319:D *104:35 0.000172065
11 *319:D *105:18 3.07692e-05
12 *328:A *319:D 7.26833e-05
*RES
1 *270:X *319:D 12.825 
*END

*D_NET *16 0.000228079
*CONN
*I *320:D I *D sky130_fd_sc_hd__dfxtp_1
*I *273:X O *D sky130_fd_sc_hd__a32o_1
*CAP
1 *320:D 8.40956e-05
2 *273:X 8.40956e-05
3 *320:D *271:A2 3.11187e-05
4 *320:D *320:CLK 2.87688e-05
*RES
1 *273:X *320:D 4.56875 
*END

*D_NET *17 0.000930723
*CONN
*I *321:D I *D sky130_fd_sc_hd__dfxtp_1
*I *276:X O *D sky130_fd_sc_hd__a22o_1
*CAP
1 *321:D 0.000232418
2 *276:X 0.000232418
3 *321:D *275:A1 8.33971e-05
4 *321:D *275:B1 1.43717e-05
5 *321:D *276:A1 0.000280612
6 *321:D *322:CLK 8.75068e-05
*RES
1 *276:X *321:D 12.5437 
*END

*D_NET *18 0.000739264
*CONN
*I *322:D I *D sky130_fd_sc_hd__dfxtp_2
*I *280:X O *D sky130_fd_sc_hd__a21o_1
*CAP
1 *322:D 0.000136412
2 *280:X 0.000136412
3 *322:D *279:A2 7.03276e-05
4 *322:D *279:B1 1.84465e-05
5 *322:D *280:A1 8.35696e-05
6 *322:D *280:B1 1.79174e-05
7 *322:D *322:CLK 1.43717e-05
8 *322:D *99:20 0.000261807
*RES
1 *280:X *322:D 10.9537 
*END

*D_NET *19 0.000735224
*CONN
*I *323:D I *D sky130_fd_sc_hd__dfxtp_1
*I *286:Y O *D sky130_fd_sc_hd__a22oi_1
*CAP
1 *323:D 0.000332451
2 *286:Y 0.000332451
3 *323:D *283:B1 0
4 *323:D *302:A 7.03219e-05
*RES
1 *286:Y *323:D 12.1838 
*END

*D_NET *20 0.000887549
*CONN
*I *324:D I *D sky130_fd_sc_hd__dfxtp_1
*I *289:Y O *D sky130_fd_sc_hd__a32oi_1
*CAP
1 *324:D 0.000296961
2 *289:Y 0.000296961
3 *324:D *288:C 0.000183189
4 *324:D *289:B2 2.69217e-05
5 *324:D *110:18 8.35157e-05
*RES
1 *289:Y *324:D 8.88875 
*END

*D_NET *21 0.000608729
*CONN
*I *325:D I *D sky130_fd_sc_hd__dfxtp_1
*I *292:Y O *D sky130_fd_sc_hd__a21oi_1
*CAP
1 *325:D 0.000142915
2 *292:Y 0.000142915
3 *325:D *263:A 7.70553e-06
4 *325:D *292:B1 8.20768e-06
5 *325:D *295:A2 4.82319e-06
6 *325:D *296:A1 0.000119375
7 *325:D *326:D 0.000136177
8 *325:D *36:25 4.66108e-05
*RES
1 *292:Y *325:D 10.1138 
*END

*D_NET *22 0.00125311
*CONN
*I *326:D I *D sky130_fd_sc_hd__dfxtp_1
*I *296:Y O *D sky130_fd_sc_hd__o21ai_1
*CAP
1 *326:D 0.000280257
2 *296:Y 0.000280257
3 *326:D *263:A 0.000109731
4 *326:D *292:A2 2.12713e-05
5 *326:D *292:B1 9.12494e-06
6 *326:D *295:A1 1.84465e-05
7 *326:D *296:A1 1.83014e-05
8 *326:D *326:CLK 0.000111958
9 *326:D *327:CLK 6.2007e-05
10 *326:D *36:25 7.03219e-05
11 *326:D *102:83 0.000135252
12 *325:D *326:D 0.000136177
*RES
1 *296:Y *326:D 14.6287 
*END

*D_NET *23 0.000321553
*CONN
*I *327:D I *D sky130_fd_sc_hd__dfxtp_1
*I *301:Y O *D sky130_fd_sc_hd__o2bb2ai_1
*CAP
1 *327:D 8.21494e-05
2 *301:Y 8.21494e-05
3 *327:D *292:B1 7.1624e-05
4 *327:D *36:10 7.03276e-05
5 *327:D *53:18 1.53027e-05
*RES
1 *301:Y *327:D 9.06 
*END

*D_NET *24 0.00100942
*CONN
*I *276:B1 I *D sky130_fd_sc_hd__a22o_1
*I *274:X O *D sky130_fd_sc_hd__o21a_1
*CAP
1 *276:B1 0.000337444
2 *274:X 0.000337444
3 *276:B1 *276:B2 8.64421e-05
4 *276:B1 *279:A1 2.01565e-05
5 *276:B1 *279:B1 8.23457e-05
6 *276:B1 *99:20 0.000145591
*RES
1 *274:X *276:B1 13.23 
*END

*D_NET *25 0.0020151
*CONN
*I *276:B2 I *D sky130_fd_sc_hd__a22o_1
*I *275:X O *D sky130_fd_sc_hd__a41o_1
*CAP
1 *276:B2 0.00041259
2 *275:X 0.00041259
3 *276:B2 *227:A_N 0.000109555
4 *276:B2 *227:B 0.000260968
5 *276:B2 *264:A4 0.000132334
6 *276:B2 *275:A1 4.76093e-05
7 *276:B2 *276:A1 3.20914e-05
8 *276:B2 *279:A1 0.000105557
9 *276:B2 *322:CLK 0.000124157
10 *276:B2 *47:10 0.000291211
11 *276:B1 *276:B2 8.64421e-05
*RES
1 *275:X *276:B2 17.94 
*END

*D_NET *26 0.00272167
*CONN
*I *279:A1 I *D sky130_fd_sc_hd__o21a_1
*I *277:Y O *D sky130_fd_sc_hd__nor3_1
*CAP
1 *279:A1 0.000661055
2 *277:Y 0.000661055
3 *279:A1 *227:A_N 3.06569e-06
4 *279:A1 *227:B 0.000307884
5 *279:A1 *264:A4 1.54665e-05
6 *279:A1 *277:A 1.10951e-05
7 *279:A1 *32:16 0.000112589
8 *279:A1 *32:28 0.000262865
9 *279:A1 *61:8 4.90227e-05
10 *279:A1 *109:14 5.33085e-05
11 *279:A1 *109:56 0.000458546
12 *276:B1 *279:A1 2.01565e-05
13 *276:B2 *279:A1 0.000105557
*RES
1 *277:Y *279:A1 19.77 
*END

*D_NET *27 0.000560284
*CONN
*I *279:A2 I *D sky130_fd_sc_hd__o21a_1
*I *278:X O *D sky130_fd_sc_hd__o21a_1
*CAP
1 *279:A2 0.00017545
2 *278:X 0.00017545
3 *279:A2 *280:A1 8.80941e-05
4 *279:A2 *280:A2 2.93447e-05
5 *279:A2 *280:B1 4.7072e-06
6 *279:A2 *91:22 1.08758e-05
7 *279:A2 *99:20 6.03398e-06
8 *322:D *279:A2 7.03276e-05
*RES
1 *278:X *279:A2 9.9 
*END

*D_NET *28 0.000449363
*CONN
*I *280:B1 I *D sky130_fd_sc_hd__a21o_1
*I *279:X O *D sky130_fd_sc_hd__o21a_1
*CAP
1 *280:B1 0.000169386
2 *279:X 0.000169386
3 *280:B1 *99:20 8.79657e-05
4 *279:A2 *280:B1 4.7072e-06
5 *322:D *280:B1 1.79174e-05
*RES
1 *279:X *280:B1 10.425 
*END

*D_NET *29 0.00276686
*CONN
*I *289:A1 I *D sky130_fd_sc_hd__a32oi_1
*I *285:C1 I *D sky130_fd_sc_hd__o2111ai_1
*I *288:B I *D sky130_fd_sc_hd__nand3_1
*I *286:A1 I *D sky130_fd_sc_hd__a22oi_1
*I *281:Y O *D sky130_fd_sc_hd__a21oi_2
*CAP
1 *289:A1 0
2 *285:C1 0
3 *288:B 0.000138217
4 *286:A1 0.000133284
5 *281:Y 0.0002041
6 *29:37 0.000138217
7 *29:24 0.00077247
8 *29:6 0.000843285
9 *286:A1 *244:B 0
10 *286:A1 *286:B1 3.62197e-05
11 *286:A1 *324:CLK 0
12 *288:B *288:A 4.11718e-05
13 *288:B *288:C 7.00889e-06
14 *288:B *32:28 5.17773e-05
15 *29:6 *281:A2 2.39856e-05
16 *29:6 *289:A3 1.74678e-05
17 *29:6 *80:60 5.83121e-06
18 *29:6 *110:18 5.35181e-06
19 *29:24 *245:A3 2.34536e-05
20 *29:24 *277:C 0.000165037
21 *29:24 *285:A2 1.00941e-05
22 *29:24 *286:B1 1.18308e-05
23 *29:24 *288:C 0
24 *29:24 *289:B1 5.63855e-05
25 *29:24 *289:B2 7.49254e-05
26 *29:24 *324:CLK 0
27 *29:24 *110:18 6.74886e-06
*RES
1 *281:Y *29:6 3.775 
2 *29:6 *29:24 7.82127 
3 *29:24 *286:A1 5.43 
4 *29:24 *29:37 2 
5 *29:37 *288:B 3.445 
6 *29:37 *285:C1 1.6 
7 *29:6 *289:A1 1.6 
*END

*D_NET *30 0.00489213
*CONN
*I *334:A I *D sky130_fd_sc_hd__dlygate4sd3_1
*I *283:B1 I *D sky130_fd_sc_hd__a31oi_1
*I *282:Y O *D sky130_fd_sc_hd__inv_2
*CAP
1 *334:A 0
2 *283:B1 0.00018183
3 *282:Y 0.000727796
4 *30:18 0.000909626
5 *283:B1 *283:A2 1.15125e-05
6 *283:B1 *283:A3 5.83121e-06
7 *283:B1 *285:B1 0.000167746
8 *283:B1 *286:A2 9.15784e-05
9 *283:B1 *80:78 8.33066e-06
10 *283:B1 *109:14 4.77719e-05
11 *283:B1 *133:26 0.000122331
12 *30:18 *247:A 0.000197836
13 *30:18 *248:B 1.41095e-05
14 *30:18 *257:B 7.21296e-06
15 *30:18 *275:A4 1.64141e-05
16 *30:18 *281:A2 0.000209802
17 *30:18 *283:A3 0.000122805
18 *30:18 *348:A 0.000372968
19 *30:18 *48:27 0.000186416
20 *30:18 *48:37 3.72899e-05
21 *30:18 *62:24 9.49357e-05
22 *30:18 *78:16 0.000504782
23 *30:18 *80:72 0.000350439
24 *30:18 *110:18 2.0794e-05
25 *30:18 *133:26 0.000348347
26 *30:18 *136:12 0.000110791
27 *323:D *283:B1 0
28 *328:A *30:18 2.28398e-05
*RES
1 *282:Y *30:18 26.18 
2 *30:18 *283:B1 9.695 
3 *30:18 *334:A 1.6 
*END

*D_NET *31 0.000921241
*CONN
*I *286:A2 I *D sky130_fd_sc_hd__a22oi_1
*I *283:Y O *D sky130_fd_sc_hd__a31oi_1
*CAP
1 *286:A2 0.000205265
2 *283:Y 0.000205265
3 *286:A2 *286:B1 3.63228e-05
4 *286:A2 *302:A 0.000148611
5 *286:A2 *133:26 0.000234198
6 *283:B1 *286:A2 9.15784e-05
*RES
1 *283:Y *286:A2 11.8912 
*END

*D_NET *32 0.00277361
*CONN
*I *289:A2 I *D sky130_fd_sc_hd__a32oi_1
*I *285:D1 I *D sky130_fd_sc_hd__o2111ai_1
*I *288:A I *D sky130_fd_sc_hd__nand3_1
*I *284:Y O *D sky130_fd_sc_hd__o211ai_2
*CAP
1 *289:A2 0
2 *285:D1 0
3 *288:A 2.19431e-05
4 *284:Y 0.000211139
5 *32:28 0.000445558
6 *32:16 0.000634754
7 *288:A *289:B1 3.51072e-05
8 *32:16 *277:A 0.000104891
9 *32:16 *278:B1 0.000118081
10 *32:16 *284:C1 2.49909e-05
11 *32:16 *78:16 6.11092e-05
12 *32:16 *91:22 9.55262e-06
13 *32:16 *110:18 3.13354e-05
14 *32:28 *277:A 0.000157041
15 *32:28 *277:C 0.000159958
16 *32:28 *285:B1 0.000268866
17 *32:28 *288:C 4.00541e-06
18 *32:28 *289:B1 1.68764e-05
19 *279:A1 *32:16 0.000112589
20 *279:A1 *32:28 0.000262865
21 *288:B *288:A 4.11718e-05
22 *288:B *32:28 5.17773e-05
*RES
1 *284:Y *32:16 8.325 
2 *32:16 *32:28 10.58 
3 *32:28 *288:A 2.395 
4 *32:28 *285:D1 1.6 
5 *32:16 *289:A2 3.6 
*END

*D_NET *33 0.000477396
*CONN
*I *286:B1 I *D sky130_fd_sc_hd__a22oi_1
*I *285:Y O *D sky130_fd_sc_hd__o2111ai_1
*CAP
1 *286:B1 0.000183159
2 *285:Y 0.000183159
3 *286:B1 *302:A 2.08739e-05
4 *286:B1 *324:CLK 0
5 *286:B1 *133:26 5.83121e-06
6 *286:A1 *286:B1 3.62197e-05
7 *286:A2 *286:B1 3.63228e-05
8 *29:24 *286:B1 1.18308e-05
*RES
1 *285:Y *286:B1 10.17 
*END

*D_NET *34 0.00184349
*CONN
*I *289:A3 I *D sky130_fd_sc_hd__a32oi_1
*I *287:X O *D sky130_fd_sc_hd__or4_1
*CAP
1 *289:A3 0.000417121
2 *287:X 0.000417121
3 *289:A3 *281:A2 0.000154981
4 *289:A3 *281:B1 7.62582e-05
5 *289:A3 *284:B1 7.01359e-05
6 *289:A3 *289:B1 1.22325e-05
7 *289:A3 *329:A 1.67631e-05
8 *289:A3 *49:18 9.03081e-05
9 *289:A3 *80:60 3.44757e-05
10 *289:A3 *110:18 0.000536623
11 *29:6 *289:A3 1.74678e-05
*RES
1 *287:X *289:A3 15.09 
*END

*D_NET *35 0.00150735
*CONN
*I *289:B1 I *D sky130_fd_sc_hd__a32oi_1
*I *288:Y O *D sky130_fd_sc_hd__nand3_1
*CAP
1 *289:B1 0.000457796
2 *288:Y 0.000457796
3 *289:B1 *277:A 0.000157041
4 *289:B1 *277:C 2.53191e-06
5 *289:B1 *285:A1 0.000234732
6 *289:B1 *285:B1 4.69853e-05
7 *289:B1 *289:B2 2.98644e-05
8 *288:A *289:B1 3.51072e-05
9 *289:A3 *289:B1 1.22325e-05
10 *29:24 *289:B1 5.63855e-05
11 *32:28 *289:B1 1.68764e-05
*RES
1 *288:Y *289:B1 14.295 
*END

*D_NET *36 0.00251708
*CONN
*I *296:A2 I *D sky130_fd_sc_hd__o21ai_1
*I *292:A2 I *D sky130_fd_sc_hd__a21oi_1
*I *301:B2 I *D sky130_fd_sc_hd__o2bb2ai_1
*I *290:Y O *D sky130_fd_sc_hd__a211oi_2
*CAP
1 *296:A2 0
2 *292:A2 0.000239232
3 *301:B2 5.19245e-05
4 *290:Y 0.000160132
5 *36:25 0.000423173
6 *36:10 0.000395998
7 *292:A2 *292:A1 2.68464e-05
8 *292:A2 *295:A1 3.75873e-05
9 *292:A2 *295:B1 4.66108e-05
10 *292:A2 *296:A1 7.9642e-06
11 *292:A2 *111:14 5.83121e-06
12 *301:B2 *225:A 4.77807e-05
13 *36:10 *292:B1 2.39947e-05
14 *36:10 *327:CLK 0.000110791
15 *36:10 *53:18 4.93662e-06
16 *36:10 *53:20 4.11678e-06
17 *36:10 *53:32 4.11678e-06
18 *36:25 *225:A 0.000197757
19 *36:25 *292:B1 7.30737e-05
20 *36:25 *295:A1 2.10905e-05
21 *36:25 *296:B1 4.66108e-05
22 *36:25 *327:CLK 0.000378977
23 *325:D *36:25 4.66108e-05
24 *326:D *292:A2 2.12713e-05
25 *326:D *36:25 7.03219e-05
26 *327:D *36:10 7.03276e-05
*RES
1 *290:Y *36:10 6.12 
2 *36:10 *301:B2 4.395 
3 *36:10 *36:25 7.835 
4 *36:25 *292:A2 8.51 
5 *36:25 *296:A2 1.6 
*END

*D_NET *37 0.0020964
*CONN
*I *292:B1 I *D sky130_fd_sc_hd__a21oi_1
*I *291:Y O *D sky130_fd_sc_hd__a31oi_1
*CAP
1 *292:B1 0.000498331
2 *291:Y 0.000498331
3 *292:B1 *221:C 2.41231e-05
4 *292:B1 *225:A 0.000197757
5 *292:B1 *258:A3 4.41506e-05
6 *292:B1 *294:B1 3.14077e-05
7 *292:B1 *295:A1 1.08758e-05
8 *292:B1 *295:B1 0.00012281
9 *292:B1 *296:A1 4.82112e-05
10 *292:B1 *300:A1 1.77945e-05
11 *292:B1 *300:D1 2.49909e-05
12 *292:B1 *327:CLK 1.747e-05
13 *292:B1 *52:83 4.17267e-05
14 *292:B1 *53:18 9.1448e-05
15 *292:B1 *111:72 0.000240943
16 *325:D *292:B1 8.20768e-06
17 *326:D *292:B1 9.12494e-06
18 *327:D *292:B1 7.1624e-05
19 *36:10 *292:B1 2.39947e-05
20 *36:25 *292:B1 7.30737e-05
*RES
1 *291:Y *292:B1 18.465 
*END

*D_NET *38 0.00137548
*CONN
*I *296:A1 I *D sky130_fd_sc_hd__o21ai_1
*I *293:Y O *D sky130_fd_sc_hd__inv_2
*CAP
1 *296:A1 0.00046173
2 *293:Y 0.00046173
3 *296:A1 *263:A 7.03276e-05
4 *296:A1 *293:A 2.68287e-05
5 *296:A1 *295:A1 1.33617e-05
6 *296:A1 *295:B1 3.08728e-05
7 *296:A1 *335:A 0.000116774
8 *296:A1 *112:27 0
9 *292:A2 *296:A1 7.9642e-06
10 *292:B1 *296:A1 4.82112e-05
11 *325:D *296:A1 0.000119375
12 *326:D *296:A1 1.83014e-05
*RES
1 *293:Y *296:A1 15.195 
*END

*D_NET *39 0.00114525
*CONN
*I *295:B1 I *D sky130_fd_sc_hd__o2111ai_1
*I *294:Y O *D sky130_fd_sc_hd__a21oi_1
*CAP
1 *295:B1 0.000407906
2 *294:Y 0.000407906
3 *295:B1 *294:B1 6.69608e-06
4 *295:B1 *295:A1 4.12775e-05
5 *295:B1 *295:D1 3.50152e-06
6 *295:B1 *296:B1 6.93262e-05
7 *295:B1 *104:134 0
8 *295:B1 *111:14 8.34281e-06
9 *292:A2 *295:B1 4.66108e-05
10 *292:B1 *295:B1 0.00012281
11 *296:A1 *295:B1 3.08728e-05
*RES
1 *294:Y *295:B1 9.5 
*END

*D_NET *40 0.00035804
*CONN
*I *296:B1 I *D sky130_fd_sc_hd__o21ai_1
*I *295:Y O *D sky130_fd_sc_hd__o2111ai_1
*CAP
1 *296:B1 8.17235e-05
2 *295:Y 8.17235e-05
3 *296:B1 *295:A1 4.66108e-05
4 *296:B1 *295:A2 2.69153e-05
5 *296:B1 *295:D1 5.12969e-06
6 *295:B1 *296:B1 6.93262e-05
7 *36:25 *296:B1 4.66108e-05
*RES
1 *295:Y *296:B1 5.045 
*END

*D_NET *41 0.00079297
*CONN
*I *300:A1 I *D sky130_fd_sc_hd__o2111a_1
*I *297:X O *D sky130_fd_sc_hd__and3b_1
*CAP
1 *300:A1 0.000153188
2 *297:X 0.000153188
3 *300:A1 *53:18 0.000179192
4 *300:A1 *111:72 0.000289608
5 *292:B1 *300:A1 1.77945e-05
*RES
1 *297:X *300:A1 11.175 
*END

*D_NET *42 0.00117996
*CONN
*I *342:A I *D sky130_fd_sc_hd__dlygate4sd3_1
*I *299:B1 I *D sky130_fd_sc_hd__a21oi_1
*I *298:Y O *D sky130_fd_sc_hd__inv_2
*CAP
1 *342:A 0.000144209
2 *299:B1 0
3 *298:Y 0.000269004
4 *42:10 0.000413213
5 *342:A *299:A2 0.00013488
6 *342:A *118:20 1.24789e-05
7 *42:10 *249:A 7.1377e-05
8 *42:10 *298:A 0
9 *42:10 *333:A 0.000116921
10 *42:10 *339:A 0
11 *42:10 *80:20 1.00941e-05
12 *42:10 *117:10 3.62258e-06
13 *42:10 *118:20 4.1652e-06
*RES
1 *298:Y *42:10 8.07 
2 *42:10 *299:B1 3.6 
3 *42:10 *342:A 6.285 
*END

*D_NET *43 0.000974924
*CONN
*I *300:A2 I *D sky130_fd_sc_hd__o2111a_1
*I *299:Y O *D sky130_fd_sc_hd__a21oi_1
*CAP
1 *300:A2 0.000285741
2 *299:Y 0.000285741
3 *300:A2 *299:A1 7.18795e-06
4 *300:A2 *299:A2 1.79098e-05
5 *300:A2 *339:A 0.000169438
6 *300:A2 *52:10 2.3228e-05
7 *300:A2 *111:72 0.000136685
8 *300:A2 *118:43 4.89926e-05
*RES
1 *299:Y *300:A2 12.57 
*END

*D_NET *44 0.000860988
*CONN
*I *301:A2_N I *D sky130_fd_sc_hd__o2bb2ai_1
*I *300:X O *D sky130_fd_sc_hd__o2111a_1
*CAP
1 *301:A2_N 0.000192799
2 *300:X 0.000192799
3 *301:A2_N *225:A 0.000118081
4 *301:A2_N *290:B1 0.000115614
5 *301:A2_N *63:27 0.000241695
*RES
1 *300:X *301:A2_N 11.25 
*END

*D_NET *45 0.00343051
*CONN
*I *224:A1 I *D sky130_fd_sc_hd__a21oi_1
*I *302:Y O *D sky130_fd_sc_hd__inv_2
*CAP
1 *224:A1 0.000974527
2 *302:Y 0.000974527
3 *224:A1 *224:B1 8.52972e-05
4 *224:A1 *232:A 0.000187093
5 *224:A1 *239:B 0.000179984
6 *224:A1 *244:B 0.000131046
7 *224:A1 *66:12 0.000349164
8 *224:A1 *101:12 0.000307979
9 *224:A1 *101:38 8.52845e-05
10 *224:A1 *114:57 0.000155608
11 *224:A1 *133:26 0
*RES
1 *302:Y *224:A1 24.045 
*END

*D_NET *46 0.00490581
*CONN
*I *256:A1 I *D sky130_fd_sc_hd__o21bai_1
*I *308:A1 I *D sky130_fd_sc_hd__o21ai_4
*I *284:A1 I *D sky130_fd_sc_hd__o211ai_2
*I *303:X O *D sky130_fd_sc_hd__or2b_4
*CAP
1 *256:A1 0.000334566
2 *308:A1 0.000271808
3 *284:A1 0.000214017
4 *303:X 0.000297482
5 *46:31 0.000685569
6 *46:10 0.000590694
7 *256:A1 *230:A_N 0.000153816
8 *256:A1 *253:A3 0.000264598
9 *256:A1 *253:B1 1.08758e-05
10 *256:A1 *253:C1 0.000139042
11 *256:A1 *256:B1_N 2.79424e-05
12 *256:A1 *258:A3 5.64069e-05
13 *256:A1 *52:33 6.42783e-05
14 *256:A1 *88:31 6.19443e-05
15 *284:A1 *247:A 2.92603e-05
16 *284:A1 *259:C1 2.87042e-05
17 *284:A1 *287:A 6.10933e-05
18 *284:A1 *287:C 0
19 *284:A1 *91:22 2.06614e-05
20 *284:A1 *110:18 2.01565e-05
21 *308:A1 *253:A3 0.00016322
22 *308:A1 *49:18 1.91597e-05
23 *46:10 *247:A 0.000638174
24 *46:10 *270:A2_N 0.000177017
25 *46:10 *287:D 7.92208e-05
26 *46:10 *303:A 2.49909e-05
27 *46:10 *59:10 0.000217274
28 *46:10 *80:112 0.000115627
29 *46:31 *259:C1 4.9263e-05
30 *46:31 *51:8 9.12494e-06
31 *46:31 *80:112 6.13807e-05
32 *46:31 *133:34 1.84465e-05
*RES
1 *303:X *46:10 12.4425 
2 *46:10 *284:A1 6.9975 
3 *46:10 *46:31 3.7625 
4 *46:31 *308:A1 5.545 
5 *46:31 *256:A1 12.395 
*END

*D_NET *47 0.0049528
*CONN
*I *228:D I *D sky130_fd_sc_hd__nand4_4
*I *306:A I *D sky130_fd_sc_hd__nand3_4
*I *264:A4 I *D sky130_fd_sc_hd__a41oi_2
*I *304:Y O *D sky130_fd_sc_hd__nor2_4
*CAP
1 *228:D 3.9646e-05
2 *306:A 0.000152962
3 *264:A4 0.000105262
4 *304:Y 0.000357412
5 *47:29 0.0005001
6 *47:10 0.000770166
7 *228:D *62:54 4.44142e-05
8 *264:A4 *227:A_N 8.87859e-05
9 *264:A4 *61:8 4.89395e-05
10 *264:A4 *109:56 0
11 *306:A *247:A 0.000177026
12 *306:A *306:C 6.16389e-05
13 *306:A *80:114 6.33103e-05
14 *47:10 *227:A_N 3.95302e-05
15 *47:10 *272:A 5.26905e-05
16 *47:10 *272:B 4.77769e-05
17 *47:10 *273:A3 0.000344968
18 *47:10 *275:A3 0.000167541
19 *47:10 *304:B 8.35068e-05
20 *47:10 *48:23 4.83032e-05
21 *47:10 *104:58 0.000237712
22 *47:10 *105:18 5.49648e-05
23 *47:10 *105:20 8.53011e-05
24 *47:10 *106:18 1.43253e-05
25 *47:29 *48:23 0.000262186
26 *47:29 *48:74 0.000255485
27 *47:29 *62:54 4.31785e-05
28 *47:29 *108:10 0.000117517
29 *47:29 *108:51 2.49909e-05
30 *47:29 *108:62 0.000224144
31 *276:B2 *264:A4 0.000132334
32 *276:B2 *47:10 0.000291211
33 *279:A1 *264:A4 1.54665e-05
*RES
1 *304:Y *47:10 13.89 
2 *47:10 *264:A4 6.285 
3 *47:10 *47:29 9.47 
4 *47:29 *306:A 8.885 
5 *47:29 *228:D 2.41 
*END

*D_NET *48 0.00692524
*CONN
*I *306:B I *D sky130_fd_sc_hd__nand3_4
*I *228:B I *D sky130_fd_sc_hd__nand4_4
*I *264:A2 I *D sky130_fd_sc_hd__a41oi_2
*I *277:A I *D sky130_fd_sc_hd__nor3_1
*I *278:A1 I *D sky130_fd_sc_hd__o21a_1
*I *274:A1 I *D sky130_fd_sc_hd__o21a_1
*I *305:Y O *D sky130_fd_sc_hd__inv_2
*CAP
1 *306:B 0.000122984
2 *228:B 1.775e-05
3 *264:A2 1.36534e-05
4 *277:A 0.000426899
5 *278:A1 1.39327e-05
6 *274:A1 7.20094e-05
7 *305:Y 0
8 *48:74 0.000286921
9 *48:37 0.000890694
10 *48:27 0.000541402
11 *48:23 0.000794795
12 *48:4 0.000642732
13 *228:B *306:C 4.99524e-05
14 *228:B *79:8 4.99524e-05
15 *264:A2 *61:8 4.66108e-05
16 *274:A1 *274:B1 4.21579e-05
17 *274:A1 *276:A1 9.13949e-06
18 *274:A1 *107:14 1.14169e-05
19 *277:A *277:B 4.66108e-05
20 *277:A *285:A1 4.82863e-05
21 *277:A *289:B2 4.22861e-05
22 *277:A *109:20 3.79037e-05
23 *278:A1 *278:B1 8.64421e-05
24 *278:A1 *285:A2 8.52845e-05
25 *306:B *306:C 0.000131168
26 *306:B *79:8 0.000124154
27 *306:B *80:114 0.000121023
28 *48:23 *227:A_N 9.10613e-05
29 *48:23 *276:A1 6.99907e-05
30 *48:23 *349:A 0.000121169
31 *48:23 *107:14 9.97536e-06
32 *48:27 *228:A 0.000153076
33 *48:37 *228:A 7.9642e-06
34 *48:37 *276:A2 0
35 *48:37 *279:B1 0.000432539
36 *48:37 *281:A2 3.39595e-06
37 *48:37 *62:24 1.35463e-05
38 *48:37 *109:56 0
39 *279:A1 *277:A 1.10951e-05
40 *289:B1 *277:A 0.000157041
41 *328:A *264:A2 4.66108e-05
42 *30:18 *48:27 0.000186416
43 *30:18 *48:37 3.72899e-05
44 *32:16 *277:A 0.000104891
45 *32:28 *277:A 0.000157041
46 *47:10 *48:23 4.83032e-05
47 *47:29 *48:23 0.000262186
48 *47:29 *48:74 0.000255485
*RES
1 *305:Y *48:4 1.6 
2 *48:4 *274:A1 3.01 
3 *48:4 *48:23 12.235 
4 *48:23 *48:27 4.4 
5 *48:27 *48:37 4.18393 
6 *48:37 *278:A1 4.395 
7 *48:37 *277:A 10.605 
8 *48:27 *264:A2 4.05 
9 *48:23 *48:74 4.52 
10 *48:74 *228:B 4.215 
11 *48:74 *306:B 6.735 
*END

*D_NET *49 0.00462337
*CONN
*I *284:A2 I *D sky130_fd_sc_hd__o211ai_2
*I *256:A2 I *D sky130_fd_sc_hd__o21bai_1
*I *308:A2 I *D sky130_fd_sc_hd__o21ai_4
*I *306:Y O *D sky130_fd_sc_hd__nand3_4
*CAP
1 *284:A2 0
2 *256:A2 0.000443996
3 *308:A2 0
4 *306:Y 0.000371139
5 *49:18 0.000581723
6 *49:10 0.000508866
7 *256:A2 *241:B 3.82018e-05
8 *256:A2 *253:A3 4.66108e-05
9 *256:A2 *259:A2 8.55491e-05
10 *256:A2 *259:C1 0.000158765
11 *256:A2 *55:52 0.000183986
12 *256:A2 *80:20 0.000169272
13 *256:A2 *80:26 0.000207539
14 *256:A2 *88:14 0.000502889
15 *256:A2 *133:34 3.04624e-05
16 *256:A2 *133:53 4.08016e-05
17 *49:10 *274:B1 1.08758e-05
18 *49:10 *281:A2 0
19 *49:10 *329:A 0.000133555
20 *49:10 *330:A 0.000329746
21 *49:10 *62:8 2.61115e-05
22 *49:10 *62:24 8.85589e-05
23 *49:10 *80:114 0.000107205
24 *49:18 *253:A3 0.000106599
25 *49:18 *281:B1 5.83121e-06
26 *49:18 *284:B1 1.16981e-05
27 *49:18 *284:C1 1.88656e-05
28 *49:18 *329:A 0.000129441
29 *49:18 *55:52 2.00153e-05
30 *49:18 *80:43 0.000155601
31 *289:A3 *49:18 9.03081e-05
32 *308:A1 *49:18 1.91597e-05
*RES
1 *306:Y *49:10 10.455 
2 *49:10 *49:18 5.825 
3 *49:18 *308:A2 1.6 
4 *49:18 *256:A2 10.6418 
5 *49:10 *284:A2 3.6 
*END

*D_NET *50 0.00485015
*CONN
*I *290:A2 I *D sky130_fd_sc_hd__a211oi_2
*I *229:B2 I *D sky130_fd_sc_hd__a22oi_4
*I *241:B I *D sky130_fd_sc_hd__and3_1
*I *308:B1 I *D sky130_fd_sc_hd__o21ai_4
*I *307:X O *D sky130_fd_sc_hd__and2b_2
*CAP
1 *290:A2 0
2 *229:B2 0.000222132
3 *241:B 0.000415097
4 *308:B1 0.000376823
5 *307:X 0.00014743
6 *50:38 0.000373709
7 *50:23 0.000566674
8 *50:6 0.000524253
9 *229:B2 *267:A1 0.000132319
10 *229:B2 *290:A1 8.35068e-05
11 *229:B2 *52:118 1.11025e-05
12 *229:B2 *55:22 0.000123194
13 *229:B2 *55:24 2.98644e-05
14 *229:B2 *55:136 2.49909e-05
15 *229:B2 *100:8 4.7072e-06
16 *241:B *234:A2 0
17 *241:B *234:B1 3.92091e-05
18 *241:B *245:A3 0
19 *241:B *245:B1 5.06317e-05
20 *241:B *291:A1 3.03985e-05
21 *241:B *315:CLK 0
22 *241:B *57:36 4.93142e-05
23 *241:B *63:27 0
24 *241:B *69:56 6.93701e-05
25 *241:B *87:8 0.00014043
26 *241:B *88:31 0.000244954
27 *308:B1 *230:A_N 1.58398e-05
28 *308:B1 *253:A1 2.0187e-05
29 *308:B1 *253:A3 0.000139586
30 *308:B1 *253:B1 2.93517e-05
31 *308:B1 *253:C1 0.000119873
32 *308:B1 *53:44 1.0397e-05
33 *308:B1 *55:38 2.79424e-05
34 *308:B1 *55:52 0.000166484
35 *308:B1 *80:112 4.94614e-05
36 *308:B1 *118:43 3.64998e-06
37 *50:6 *309:A 4.8854e-05
38 *50:6 *118:43 3.5582e-05
39 *50:38 *253:B1 0.000223429
40 *50:38 *291:A1 0.000109284