*SPEF "ieee 1481-1999"
*DESIGN "pes_brg"
*DATE "11:11:11 Fri 11 11, 1111"
*VENDOR "OpenRCX"
*PROGRAM "Parallel Extraction"
*VERSION "1.0"
*DESIGN_FLOW "NAME_SCOPE LOCAL" "PIN_CAP NONE"
*DIVIDER /
*DELIMITER :
*BUS_DELIMITER []
*T_UNIT 1 NS
*C_UNIT 1 PF
*R_UNIT 1 OHM
*L_UNIT 1 HENRY

*NAME_MAP
*3 clk
*4 clkout
*5 reset
*6 sel[0]
*7 sel[1]
*8 _000_
*9 _001_
*10 _002_
*11 _003_
*12 _004_
*13 _005_
*14 _006_
*15 _007_
*16 _008_
*17 _009_
*18 _010_
*19 _011_
*20 _012_
*21 _013_
*22 _014_
*23 _015_
*24 _016_
*25 _017_
*26 _018_
*27 _019_
*28 _020_
*29 _021_
*30 _022_
*31 _023_
*32 _024_
*33 _025_
*34 _026_
*35 _027_
*36 _028_
*37 _029_
*38 _030_
*39 _031_
*40 _032_
*41 _033_
*42 _034_
*43 _035_
*44 _036_
*45 _037_
*46 _038_
*47 _039_
*48 _040_
*49 _041_
*50 _042_
*51 _043_
*52 _044_
*53 _045_
*54 _046_
*55 _047_
*56 _048_
*57 _049_
*58 _050_
*59 _051_
*60 _052_
*61 _053_
*62 _054_
*63 _055_
*64 _056_
*65 _057_
*66 _058_
*67 _059_
*68 _060_
*69 _061_
*70 _062_
*71 _063_
*72 _064_
*73 _065_
*74 _066_
*75 _067_
*76 _068_
*77 _069_
*78 _070_
*79 _071_
*80 _072_
*81 _073_
*82 _074_
*83 _075_
*84 _076_
*85 _077_
*86 _078_
*87 _079_
*88 _080_
*89 _081_
*90 _082_
*91 _083_
*92 _084_
*93 _085_
*94 _086_
*95 _087_
*96 _088_
*97 _089_
*98 _090_
*99 _091_
*100 clknet_0_clk
*101 clknet_1_0__leaf_clk
*102 clknet_1_1__leaf_clk
*103 cnt1\[0\]
*104 cnt1\[1\]
*105 cnt1\[2\]
*106 cnt1\[3\]
*107 cnt1\[4\]
*108 cnt1\[5\]
*109 cnt2\[0\]
*110 cnt2\[1\]
*111 cnt3\[0\]
*112 cnt3\[1\]
*113 cnt3\[2\]
*114 cnt4\[0\]
*115 cnt4\[1\]
*116 cnt4\[2\]
*117 cnt4\[3\]
*118 net1
*119 net10
*120 net12
*121 net13
*122 net14
*123 net15
*124 net17
*125 net18
*126 net2
*127 net20
*128 net21
*129 net22
*130 net23
*131 net24
*132 net28
*133 net3
*134 net4
*135 net5
*136 net6
*137 net7
*138 net8
*139 net9
*140 FILLER_0_0_46
*141 FILLER_0_0_82
*142 FILLER_0_10_27
*143 FILLER_0_10_61
*144 FILLER_0_10_81
*145 FILLER_0_11_12
*146 FILLER_0_11_41
*147 FILLER_0_11_65
*148 FILLER_0_12_29
*149 FILLER_0_12_3
*150 FILLER_0_13_23
*151 FILLER_0_13_3
*152 FILLER_0_13_40
*153 FILLER_0_13_51
*154 FILLER_0_13_55
*155 FILLER_0_13_65
*156 FILLER_0_1_57
*157 FILLER_0_1_82
*158 FILLER_0_1_9
*159 FILLER_0_3_3
*160 FILLER_0_4_29
*161 FILLER_0_4_3
*162 FILLER_0_4_41
*163 FILLER_0_4_70
*164 FILLER_0_4_79
*165 FILLER_0_5_54
*166 FILLER_0_5_78
*167 FILLER_0_6_11
*168 FILLER_0_6_26
*169 FILLER_0_6_3
*170 FILLER_0_6_58
*171 FILLER_0_6_73
*172 FILLER_0_7_16
*173 FILLER_0_9_12
*174 FILLER_0_9_55
*175 FILLER_0_9_82
*176 PHY_0
*177 PHY_1
*178 PHY_10
*179 PHY_11
*180 PHY_12
*181 PHY_13
*182 PHY_14
*183 PHY_15
*184 PHY_16
*185 PHY_17
*186 PHY_18
*187 PHY_19
*188 PHY_2
*189 PHY_20
*190 PHY_21
*191 PHY_22
*192 PHY_23
*193 PHY_24
*194 PHY_25
*195 PHY_26
*196 PHY_27
*197 PHY_3
*198 PHY_4
*199 PHY_5
*200 PHY_6
*201 PHY_7
*202 PHY_8
*203 PHY_9
*204 TAP_28
*205 TAP_29
*206 TAP_30
*207 TAP_31
*208 TAP_32
*209 TAP_33
*210 TAP_34
*211 TAP_35
*212 TAP_36
*213 TAP_37
*214 TAP_38
*215 TAP_39
*216 TAP_40
*217 TAP_41
*218 TAP_42
*219 TAP_43
*220 _092_
*221 _093_
*222 _094_
*223 _095_
*224 _096_
*225 _097_
*226 _098_
*227 _099_
*228 _100_
*229 _101_
*230 _102_
*231 _103_
*232 _104_
*233 _105_
*234 _106_
*235 _107_
*236 _108_
*237 _109_
*238 _110_
*239 _111_
*240 _112_
*241 _113_
*242 _114_
*243 _115_
*244 _116_
*245 _117_
*246 _118_
*247 _119_
*248 _120_
*249 _121_
*250 _122_
*251 _123_
*252 _124_
*253 _125_
*254 _126_
*255 _127_
*256 _128_
*257 _129_
*258 _130_
*259 _131_
*260 _132_
*261 _133_
*262 _134_
*263 _135_
*264 _136_
*265 _137_
*266 _138_
*267 _139_
*268 _140_
*269 _141_
*270 _142_
*271 _143_
*272 _144_
*273 _145_
*274 _146_
*275 _147_
*276 _148_
*277 _149_
*278 _150_
*279 _151_
*280 _152_
*281 _153_
*282 _154_
*283 _155_
*284 _156_
*285 _157_
*286 _158_
*287 _159_
*288 _160_
*289 _161_
*290 _162_
*291 _163_
*292 _164_
*293 _165_
*294 _166_
*295 _167_
*296 _168_
*297 _169_
*298 _170_
*299 _171_
*300 _172_
*301 _173_
*302 _174_
*303 _175_
*304 _176_
*305 _177_
*306 _178_
*307 _179_
*308 _180_
*309 _181_
*310 _182_
*311 _183_
*312 _184_
*313 _185_
*314 _186_
*315 _187_
*316 _188_
*317 _189_
*318 _190_
*319 _191_
*320 _192_
*321 _193_
*322 _194_
*323 _195_
*324 _196_
*325 _197_
*326 _198_
*327 _199_
*328 clkbuf_0_clk
*329 clkbuf_1_0__f_clk
*330 clkbuf_1_1__f_clk
*331 hold10
*332 hold11
*333 hold13
*334 hold14
*335 hold16
*336 hold17
*337 hold18
*338 hold19
*339 hold20
*340 hold24
*341 hold8
*342 hold9
*343 input1
*344 input2
*345 input3
*346 output4
*347 rebuffer1
*348 rebuffer2
*349 rebuffer3
*350 rebuffer4
*351 rebuffer5
*352 rebuffer6

*PORTS
clk I
clkout O
reset I
sel[0] I
sel[1] I

*D_NET *3 0.00604417
*CONN
*P clk I
*I *328:A I *D sky130_fd_sc_hd__clkbuf_16
*CAP
1 clk 0.00205188
2 *328:A 0
3 *3:21 0.00205188
4 *3:21 *264:A2 5.3304e-05
5 *3:21 *264:B1 0.000184153
6 *3:21 *268:B1 0.000237145
7 *3:21 *275:A4 0.000138747
8 *3:21 *15:10 7.52096e-05
9 *3:21 *30:12 2.12024e-05
10 *3:21 *61:8 0.000104925
11 *3:21 *62:18 1.23994e-05
12 *3:21 *78:16 0.00052226
13 *3:21 *93:6 5.3304e-05
14 *3:21 *102:25 2.271e-05
15 *3:21 *102:38 5.4881e-05
16 *3:21 *104:79 3.31053e-05
17 *3:21 *108:14 0.000139447
18 *3:21 *109:46 0.000287623
*RES
1 clk *3:21 45.5905 
2 *3:21 *328:A 23 
*END

*D_NET *4 0.00182705
*CONN
*P clkout O
*I *346:X O *D sky130_fd_sc_hd__clkbuf_4
*CAP
1 clkout 0.000480781
2 *346:X 0.000425578
3 *4:8 0.00090636
4 *4:8 *101:12 1.43261e-05
*RES
1 *346:X *4:8 45.7679 
2 *4:8 clkout 10.8129 
*END

*D_NET *5 0.00108677
*CONN
*P reset I
*I *343:A I *D sky130_fd_sc_hd__buf_1
*CAP
1 reset 0.000453981
2 *343:A 0
3 *5:13 0.000453981
4 *5:13 *113:25 0.000178808
*RES
1 reset *5:13 29.6598 
2 *5:13 *343:A 23 
*END

*D_NET *6 0.00184727
*CONN
*P sel[0] I
*I *344:A I *D sky130_fd_sc_hd__buf_1
*CAP
1 sel[0] 0.000801497
2 *344:A 0
3 *6:11 0.000801497
4 *6:11 *347:A 5.56356e-05
5 *6:11 *350:A 7.87243e-05
6 *6:11 *52:147 5.28689e-05
7 *6:11 *60:8 3.22051e-05
8 *6:11 *103:81 6.17437e-06
9 *6:11 *119:8 1.86706e-05
*RES
1 sel[0] *6:11 31.3436 
2 *6:11 *344:A 23 
*END

*D_NET *7 0.0094246
*CONN
*P sel[1] I
*I *345:A I *D sky130_fd_sc_hd__buf_1
*CAP
1 sel[1] 0.00340178
2 *345:A 0
3 *7:15 0.00340178
4 *7:15 *69:34 7.33296e-05
5 *7:15 *71:8 0
6 *7:15 *74:18 0.000183381
7 *7:15 *75:8 0
8 *7:15 *115:69 0.00171931
9 *7:15 *115:108 0.000108477
10 *7:15 *116:44 0.000145106
11 *7:15 *117:37 0
12 *7:15 *133:10 1.38508e-05
13 *7:15 *134:14 1.42808e-05
14 *7:15 *134:37 0.000363311
*RES
1 sel[1] *7:15 48.9951 
2 *7:15 *345:A 23 
*END

*D_NET *8 0.00069412
*CONN
*I *312:D I *D sky130_fd_sc_hd__dfxtp_2
*I *224:Y O *D sky130_fd_sc_hd__a21oi_1
*CAP
1 *312:D 1.43059e-05
2 *224:Y 9.63321e-05
3 *8:8 0.000110638
4 *312:D *252:A 8.55313e-05
5 *312:D *101:51 8.38304e-05
6 *8:8 *84:12 8.30566e-06
7 *8:8 *101:59 0.000167903
8 *8:8 *134:37 0.000127273
*RES
1 *224:Y *8:8 40.61 
2 *8:8 *312:D 38.9373 
*END

*D_NET *9 0.00113588
*CONN
*I *313:D I *D sky130_fd_sc_hd__dfxtp_1
*I *234:X O *D sky130_fd_sc_hd__a22o_1
*CAP
1 *313:D 0.000206798
2 *234:X 0.000176359
3 *9:12 0.000383157
4 *313:D *221:B 2.3803e-05
5 *313:D *313:CLK 1.61385e-05
6 *313:D *53:157 8.65294e-05
7 *9:12 *234:A1 6.90766e-05
8 *9:12 *53:157 3.8825e-05
9 *9:12 *67:14 7.95651e-05
10 *9:12 *101:82 5.56279e-05
*RES
1 *234:X *9:12 41.8529 
2 *9:12 *313:D 42.2671 
*END

*D_NET *10 0.00199705
*CONN
*I *314:D I *D sky130_fd_sc_hd__dfxtp_1
*I *240:Y O *D sky130_fd_sc_hd__a2bb2oi_1
*CAP
1 *314:D 7.25767e-05
2 *240:Y 0.000421243
3 *10:10 0.000493819
4 *314:D *221:A 0.000320586
5 *314:D *101:70 0.000320586
6 *10:10 *237:A2 0
7 *10:10 *69:14 0.000100069
8 *10:10 *69:18 9.58714e-05
9 *10:10 *69:56 8.84522e-05
10 *10:10 *83:24 0
11 *10:10 *123:10 8.38427e-05
*RES
1 *240:Y *10:10 44.4214 
2 *10:10 *314:D 41.5266 
*END

*D_NET *11 0.000826288
*CONN
*I *315:D I *D sky130_fd_sc_hd__dfxtp_1
*I *245:X O *D sky130_fd_sc_hd__a32o_1
*CAP
1 *315:D 4.34892e-05
2 *245:X 0.000263407
3 *11:14 0.000306896
4 *315:D *234:A1 1.84831e-05
5 *315:D *234:B2 8.52864e-05
6 *11:14 *234:A1 2.83905e-05
7 *11:14 *241:B 0
8 *11:14 *67:14 2.24366e-06
9 *11:14 *73:10 5.1986e-06
10 *11:14 *76:24 7.28927e-05
*RES
1 *245:X *11:14 41.77 
2 *11:14 *315:D 38.9943 
*END

*D_NET *12 0.000516367
*CONN
*I *316:D I *D sky130_fd_sc_hd__dfxtp_1
*I *260:Y O *D sky130_fd_sc_hd__a22oi_1
*CAP
1 *316:D 0.00015964
2 *260:Y 0.00015964
3 *316:D *260:A2 5.90686e-05
4 *316:D *316:CLK 1.09903e-05
5 *316:D *101:51 0.000125494
6 *316:D *134:37 1.53528e-06
*RES
1 *260:Y *316:D 49.5421 
*END

*D_NET *13 0.000425066
*CONN
*I *317:D I *D sky130_fd_sc_hd__dfxtp_4
*I *263:X O *D sky130_fd_sc_hd__clkbuf_1
*CAP
1 *317:D 0.000145685
2 *263:X 0.000145685
3 *317:D *102:77 0.000133695
*RES
1 *263:X *317:D 49.19 
*END

*D_NET *14 0.00111941
*CONN
*I *318:D I *D sky130_fd_sc_hd__dfxtp_2
*I *267:X O *D sky130_fd_sc_hd__a32o_1
*CAP
1 *318:D 8.70553e-05
2 *267:X 0.000203575
3 *14:8 0.00029063
4 *318:D *102:68 0.000132599
5 *318:D *102:77 2.193e-05
6 *14:8 *80:160 0.000162254
7 *14:8 *94:14 0.000110258
8 *14:8 *103:12 0.000111106
*RES
1 *267:X *14:8 42.3707 
2 *14:8 *318:D 39.8902 
*END

*D_NET *15 0.00158663
*CONN
*I *319:D I *D sky130_fd_sc_hd__dfxtp_2
*I *270:X O *D sky130_fd_sc_hd__a2bb2o_1
*CAP
1 *319:D 2.6944e-05
2 *270:X 0.00035061
3 *15:10 0.000377554
4 *319:D *102:55 8.91085e-05
5 *319:D *105:18 3.197e-05
6 *15:10 *268:A2 8.57577e-05
7 *15:10 *268:B1 5.90856e-07
8 *15:10 *270:A1_N 9.91548e-05
9 *15:10 *102:38 1.13812e-05
10 *15:10 *103:97 1.57659e-05
11 *15:10 *104:35 0.000208378
12 *15:10 *130:10 0.00021421
13 *3:21 *15:10 7.52096e-05
*RES
1 *270:X *15:10 44.7736 
2 *15:10 *319:D 38.9943 
*END

*D_NET *16 0.000277769
*CONN
*I *320:D I *D sky130_fd_sc_hd__dfxtp_1
*I *273:X O *D sky130_fd_sc_hd__a32o_1
*CAP
1 *320:D 0.000108259
2 *273:X 0.000108259
3 *320:D *320:CLK 3.24148e-05
4 *320:D *104:24 2.88374e-05
*RES
1 *273:X *320:D 47.8902 
*END

*D_NET *17 0.00119644
*CONN
*I *321:D I *D sky130_fd_sc_hd__dfxtp_1
*I *276:X O *D sky130_fd_sc_hd__a22o_1
*CAP
1 *321:D 7.17495e-06
2 *276:X 0.000321281
3 *17:8 0.000328456
4 *321:D *275:A1 1.64354e-05
5 *321:D *275:B1 1.64354e-05
6 *17:8 *102:14 7.91323e-05
7 *17:8 *107:28 0.000343906
8 *17:8 *137:10 8.36198e-05
*RES
1 *276:X *17:8 45.1879 
2 *17:8 *321:D 38.1916 
*END

*D_NET *18 0.00094843
*CONN
*I *322:D I *D sky130_fd_sc_hd__dfxtp_2
*I *280:X O *D sky130_fd_sc_hd__a21o_1
*CAP
1 *322:D 1.26271e-05
2 *280:X 0.000184767
3 *18:10 0.000197395
4 *322:D *102:14 1.64354e-05
5 *18:10 *280:B1 1.84917e-05
6 *18:10 *27:10 8.57577e-05
7 *18:10 *93:20 2.23467e-05
8 *18:10 *99:20 0.000321688
9 *18:10 *129:10 8.89217e-05
*RES
1 *280:X *18:10 42.9921 
2 *18:10 *322:D 38.1916 
*END

*D_NET *19 0.000904025
*CONN
*I *323:D I *D sky130_fd_sc_hd__dfxtp_1
*I *286:Y O *D sky130_fd_sc_hd__a22oi_1
*CAP
1 *323:D 0.000345106
2 *286:Y 6.40325e-05
3 *19:8 0.000409138
4 *323:D *30:30 0
5 *19:8 *302:A 8.57485e-05
*RES
1 *286:Y *19:8 39.2014 
2 *19:8 *323:D 43.6809 
*END

*D_NET *20 0.00105541
*CONN
*I *324:D I *D sky130_fd_sc_hd__dfxtp_1
*I *289:Y O *D sky130_fd_sc_hd__a32oi_1
*CAP
1 *324:D 0
2 *289:Y 0.000363974
3 *20:10 0.000363974
4 *20:10 *289:B2 2.95526e-05
5 *20:10 *110:10 9.66668e-05
6 *20:10 *132:16 0.000201247
*RES
1 *289:Y *20:10 30.8559 
2 *20:10 *324:D 23 
*END

*D_NET *21 0.00076739
*CONN
*I *325:D I *D sky130_fd_sc_hd__dfxtp_1
*I *292:Y O *D sky130_fd_sc_hd__a21oi_1
*CAP
1 *325:D 1.06403e-05
2 *292:Y 0.000186804
3 *21:10 0.000197444
4 *325:D *92:10 8.15899e-06
5 *325:D *112:87 4.9054e-06
6 *21:10 *292:B1 7.59183e-06
7 *21:10 *296:A1 5.56356e-05
8 *21:10 *22:12 0.000167676
9 *21:10 *36:25 5.3304e-05
10 *21:10 *38:10 7.52305e-05
*RES
1 *292:Y *21:10 41.8321 
2 *21:10 *325:D 38.1916 
*END

*D_NET *22 0.00157604
*CONN
*I *326:D I *D sky130_fd_sc_hd__dfxtp_1
*I *296:Y O *D sky130_fd_sc_hd__o21ai_1
*CAP
1 *326:D 1.58638e-05
2 *296:Y 0.000370833
3 *22:12 0.000386697
4 *22:12 *292:B1 1.13812e-05
5 *22:12 *326:CLK 0.000119361
6 *22:12 *327:CLK 6.50548e-05
7 *22:12 *36:25 8.57485e-05
8 *22:12 *36:37 2.20884e-05
9 *22:12 *38:10 1.68502e-05
10 *22:12 *92:10 0.000134148
11 *22:12 *102:83 0.000157994
12 *22:12 *111:39 2.23467e-05
13 *21:10 *22:12 0.000167676
*RES
1 *296:Y *22:12 48.0671 
2 *22:12 *326:D 38.1916 
*END

*D_NET *23 0.000408378
*CONN
*I *327:D I *D sky130_fd_sc_hd__dfxtp_1
*I *301:Y O *D sky130_fd_sc_hd__o2bb2ai_1
*CAP
1 *327:D 6.42266e-05
2 *301:Y 4.52248e-05
3 *23:8 0.000109451
4 *327:D *53:18 1.58315e-05
5 *23:8 *292:B1 8.78864e-05
6 *23:8 *36:10 8.57577e-05
*RES
1 *301:Y *23:8 39.2014 
2 *23:8 *327:D 39.3671 
*END

*D_NET *24 0.00124737
*CONN
*I *276:B1 I *D sky130_fd_sc_hd__a22o_1
*I *274:X O *D sky130_fd_sc_hd__o21a_1
*CAP
1 *276:B1 0.000245654
2 *274:X 0.000191466
3 *24:8 0.000437119
4 *276:B1 *276:B2 0.000102389
5 *276:B1 *279:A1 2.18286e-05
6 *276:B1 *279:B1 9.41704e-05
7 *24:8 *99:20 0.00015474
*RES
1 *274:X *24:8 42.3707 
2 *24:8 *276:B1 41.9564 
*END

*D_NET *25 0.00251601
*CONN
*I *276:B2 I *D sky130_fd_sc_hd__a22o_1
*I *275:X O *D sky130_fd_sc_hd__a41o_1
*CAP
1 *276:B2 0.00020588
2 *275:X 0.000356318
3 *25:10 0.000562198
4 *276:B2 *279:A1 0.000123877
5 *276:B2 *104:79 0.000126958
6 *276:B2 *107:28 3.31511e-05
7 *276:B2 *139:18 0.000303007
8 *25:10 *264:A4 0.000161041
9 *25:10 *275:A1 5.53196e-05
10 *25:10 *47:10 0.000356185
11 *25:10 *102:14 0.000129687
12 *25:10 *139:18 0
13 *276:B1 *276:B2 0.000102389
*RES
1 *275:X *25:10 45.8093 
2 *25:10 *276:B2 45.0221 
*END

*D_NET *26 0.00347007
*CONN
*I *279:A1 I *D sky130_fd_sc_hd__o21a_1
*I *277:Y O *D sky130_fd_sc_hd__nor3_1
*CAP
1 *279:A1 0.00053662
2 *277:Y 0.000361906
3 *26:8 0.000898526
4 *279:A1 *264:A4 1.61385e-05
5 *279:A1 *61:8 5.45541e-05
6 *279:A1 *104:79 2.75275e-06
7 *279:A1 *139:18 0.000362307
8 *26:8 *277:A 1.16455e-05
9 *26:8 *32:16 0.000137744
10 *26:8 *32:28 0.000319502
11 *26:8 *109:14 6.38845e-05
12 *26:8 *109:46 0.000558785
13 *276:B1 *279:A1 2.18286e-05
14 *276:B2 *279:A1 0.000123877
*RES
1 *277:Y *26:8 46.5964 
2 *26:8 *279:A1 46.7621 
*END

*D_NET *27 0.000699281
*CONN
*I *279:A2 I *D sky130_fd_sc_hd__o21a_1
*I *278:X O *D sky130_fd_sc_hd__o21a_1
*CAP
1 *279:A2 0
2 *278:X 0.000228041
3 *27:10 0.000228041
4 *27:10 *280:A1 1.83408e-05
5 *27:10 *280:A2 3.05276e-05
6 *27:10 *280:B1 4.91172e-06
7 *27:10 *91:20 1.24376e-05
8 *27:10 *99:20 5.46609e-06
9 *27:10 *129:10 8.57577e-05
10 *18:10 *27:10 8.57577e-05
*RES
1 *278:X *27:10 41.7286 
2 *27:10 *279:A2 38 
*END

*D_NET *28 0.000535049
*CONN
*I *280:B1 I *D sky130_fd_sc_hd__a21o_1
*I *279:X O *D sky130_fd_sc_hd__o21a_1
*CAP
1 *280:B1 0.000141567
2 *279:X 6.64099e-05
3 *28:8 0.000207977
4 *280:B1 *99:20 5.45644e-05
5 *28:8 *99:20 4.11274e-05
6 *18:10 *280:B1 1.84917e-05
7 *27:10 *280:B1 4.91172e-06
*RES
1 *279:X *28:8 39.2014 
2 *28:8 *280:B1 41.2521 
*END

*D_NET *29 0.00347578
*CONN
*I *289:A1 I *D sky130_fd_sc_hd__a32oi_1
*I *285:C1 I *D sky130_fd_sc_hd__o2111ai_1
*I *288:B I *D sky130_fd_sc_hd__nand3_1
*I *286:A1 I *D sky130_fd_sc_hd__a22oi_1
*I *281:Y O *D sky130_fd_sc_hd__a21oi_2
*CAP
1 *289:A1 0
2 *285:C1 0
3 *288:B 0.000170153
4 *286:A1 0.000170115
5 *281:Y 0.000274102
6 *29:37 0.000170153
7 *29:24 0.000995318
8 *29:6 0.00109931
9 *286:A1 *324:CLK 0
10 *286:A1 *33:8 3.76761e-05
11 *286:A1 *75:28 0
12 *288:B *288:A 4.49877e-05
13 *288:B *288:C 7.53384e-06
14 *288:B *32:28 5.96305e-05
15 *29:6 *289:A3 1.61361e-05
16 *29:6 *59:35 2.43944e-05
17 *29:6 *80:60 6.17437e-06
18 *29:6 *110:10 4.96675e-06
19 *29:24 *277:C 0.000200347
20 *29:24 *289:B2 2.64616e-05
21 *29:24 *324:CLK 0
22 *29:24 *33:8 1.26098e-05
23 *29:24 *35:10 5.77888e-05
24 *29:24 *76:24 2.07402e-05
25 *29:24 *78:26 1.05658e-05
26 *29:24 *110:10 6.21836e-06
27 *29:24 *120:10 6.04064e-05
28 *29:24 *132:8 0
*RES
1 *281:Y *29:6 26.0036 
2 *29:6 *29:24 37.7197 
3 *29:24 *286:A1 40.5271 
4 *29:24 *29:37 15 
5 *29:37 *288:B 25.5479 
6 *29:37 *285:C1 23 
7 *29:6 *289:A1 23 
*END

*D_NET *30 0.00623396
*CONN
*I *334:A I *D sky130_fd_sc_hd__dlygate4sd3_1
*I *283:B1 I *D sky130_fd_sc_hd__a31oi_1
*I *282:Y O *D sky130_fd_sc_hd__inv_2
*CAP
1 *334:A 0
2 *283:B1 0
3 *282:Y 0.000398291
4 *30:30 0.000246545
5 *30:18 0.000917822
6 *30:12 0.00106957
7 *30:12 *248:B 1.46205e-05
8 *30:12 *275:A4 1.74126e-05
9 *30:12 *348:A 0.000437129
10 *30:12 *78:16 6.70068e-05
11 *30:12 *110:30 0.000233617
12 *30:12 *136:8 0.000134776
13 *30:18 *48:27 0.000227053
14 *30:18 *48:37 4.36457e-05
15 *30:18 *53:64 0.000134282
16 *30:18 *53:88 6.7177e-06
17 *30:18 *59:35 0.000258124
18 *30:18 *62:18 9.81311e-05
19 *30:18 *78:16 0.000536969
20 *30:18 *80:72 0.000422319
21 *30:18 *110:10 2.14599e-05
22 *30:18 *133:22 0.000389907
23 *30:30 *283:A2 1.05841e-05
24 *30:30 *285:B1 0.000204401
25 *30:30 *31:8 0.000111129
26 *30:30 *53:64 6.17437e-06
27 *30:30 *80:78 1.0092e-05
28 *30:30 *109:14 5.56279e-05
29 *30:30 *133:22 0.000139352
30 *323:D *30:30 0
31 *3:21 *30:12 2.12024e-05
*RES
1 *282:Y *30:12 47.425 
2 *30:12 *30:18 33.995 
3 *30:18 *30:30 35.655 
4 *30:30 *283:B1 23 
5 *30:18 *334:A 23 
*END

*D_NET *31 0.00113131
*CONN
*I *286:A2 I *D sky130_fd_sc_hd__a22oi_1
*I *283:Y O *D sky130_fd_sc_hd__a31oi_1
*CAP
1 *286:A2 0.000192697
2 *283:Y 7.49243e-05
3 *31:8 0.000267621
4 *286:A2 *286:B1 3.92569e-05
5 *286:A2 *302:A 0.000169711
6 *286:A2 *133:22 0.000275974
7 *31:8 *133:10 0
8 *30:30 *31:8 0.000111129
*RES
1 *283:Y *31:8 39.5536 
2 *31:8 *286:A2 42.9248 
*END

*D_NET *32 0.00347249
*CONN
*I *289:A2 I *D sky130_fd_sc_hd__a32oi_1
*I *285:D1 I *D sky130_fd_sc_hd__o2111ai_1
*I *288:A I *D sky130_fd_sc_hd__nand3_1
*I *284:Y O *D sky130_fd_sc_hd__o211ai_2
*CAP
1 *289:A2 0
2 *285:D1 0
3 *288:A 3.02584e-05
4 *284:Y 0.000298759
5 *32:28 0.000582407
6 *32:16 0.000850908
7 *288:A *35:10 3.66555e-05
8 *32:16 *277:A 0.000128654
9 *32:16 *278:B1 0.000135037
10 *32:16 *53:123 2.64616e-05
11 *32:16 *78:16 6.99132e-05
12 *32:16 *91:20 9.8592e-06
13 *32:16 *110:18 3.85196e-05
14 *32:28 *277:A 0.000193187
15 *32:28 *277:C 0.000183141
16 *32:28 *285:B1 0.000307241
17 *32:28 *288:C 4.00259e-06
18 *32:28 *35:10 1.56178e-05
19 *288:B *288:A 4.49877e-05
20 *288:B *32:28 5.96305e-05
21 *26:8 *32:16 0.000137744
22 *26:8 *32:28 0.000319502
*RES
1 *284:Y *32:16 44.525 
2 *32:16 *32:28 26.8486 
3 *32:28 *288:A 24.0979 
4 *32:28 *285:D1 23 
5 *32:16 *289:A2 38 
*END

*D_NET *33 0.000578028
*CONN
*I *286:B1 I *D sky130_fd_sc_hd__a22oi_1
*I *285:Y O *D sky130_fd_sc_hd__o2111ai_1
*CAP
1 *286:B1 0.000136315
2 *285:Y 9.53e-05
3 *33:8 0.000231615
4 *286:B1 *302:A 1.90811e-05
5 *286:B1 *133:22 6.17437e-06
6 *33:8 *324:CLK 0
7 *286:A1 *33:8 3.76761e-05
8 *286:A2 *286:B1 3.92569e-05
9 *29:24 *33:8 1.26098e-05
*RES
1 *285:Y *33:8 39.5536 
2 *33:8 *286:B1 40.5479 
*END

*D_NET *34 0.0023723
*CONN
*I *289:A3 I *D sky130_fd_sc_hd__a32oi_1
*I *287:X O *D sky130_fd_sc_hd__or4_1
*CAP
1 *289:A3 0.000225462
2 *287:X 0.000381497
3 *34:10 0.000606959
4 *289:A3 *289:B1 1.1258e-05
5 *289:A3 *52:60 5.56279e-05
6 *289:A3 *59:35 0.000178235
7 *289:A3 *80:60 3.74732e-05
8 *289:A3 *110:10 0.000301764
9 *34:10 *49:18 0.000109343
10 *34:10 *52:60 3.43144e-05
11 *34:10 *80:51 8.50457e-05
12 *34:10 *100:12 1.74173e-05
13 *34:10 *110:10 4.87782e-05
14 *34:10 *110:18 0.000262988
15 *29:6 *289:A3 1.61361e-05
*RES
1 *287:X *34:10 43.6136 
2 *34:10 *289:A3 43.2821 
*END

*D_NET *35 0.00186536
*CONN
*I *289:B1 I *D sky130_fd_sc_hd__a32oi_1
*I *288:Y O *D sky130_fd_sc_hd__nand3_1
*CAP
1 *289:B1 3.26939e-05
2 *288:Y 0.000562858
3 *35:10 0.000595552
4 *35:10 *277:A 0.000193187
5 *35:10 *277:C 2.12347e-06
6 *35:10 *285:A1 0.000270805
7 *35:10 *285:B1 5.0082e-05
8 *35:10 *120:10 3.67392e-05
9 *288:A *35:10 3.66555e-05
10 *289:A3 *289:B1 1.1258e-05
11 *29:24 *35:10 5.77888e-05
12 *32:28 *35:10 1.56178e-05
*RES
1 *288:Y *35:10 46.9486 
2 *35:10 *289:B1 38.8493 
*END

*D_NET *36 0.00326027
*CONN
*I *296:A2 I *D sky130_fd_sc_hd__o21ai_1
*I *292:A2 I *D sky130_fd_sc_hd__a21oi_1
*I *301:B2 I *D sky130_fd_sc_hd__o2bb2ai_1
*I *290:Y O *D sky130_fd_sc_hd__a211oi_2
*CAP
1 *296:A2 0
2 *292:A2 0
3 *301:B2 7.0682e-05
4 *290:Y 0.000222721
5 *36:37 0.000316443
6 *36:25 0.000597121
7 *36:10 0.000574081
8 *301:B2 *126:28 5.58003e-05
9 *36:10 *292:B1 2.56281e-05
10 *36:10 *327:CLK 0.000134776
11 *36:10 *53:18 4.49581e-06
12 *36:10 *53:20 3.82058e-06
13 *36:10 *53:32 3.82058e-06
14 *36:25 *292:B1 7.5666e-05
15 *36:25 *296:B1 5.3304e-05
16 *36:25 *327:CLK 0.000465446
17 *36:25 *111:39 2.33782e-05
18 *36:25 *126:28 0.000242738
19 *36:37 *292:A1 2.93335e-05
20 *36:37 *38:10 9.28078e-06
21 *36:37 *39:16 5.3304e-05
22 *36:37 *111:14 6.17437e-06
23 *36:37 *111:39 4.53604e-05
24 *21:10 *36:25 5.3304e-05
25 *22:12 *36:25 8.57485e-05
26 *22:12 *36:37 2.20884e-05
27 *23:8 *36:10 8.57577e-05
*RES
1 *290:Y *36:10 41.48 
2 *36:10 *301:B2 39.0979 
3 *36:10 *36:25 23.0579 
4 *36:25 *36:37 34.0186 
5 *36:37 *292:A2 23 
6 *36:25 *296:A2 23 
*END

*D_NET *37 0.00265214
*CONN
*I *292:B1 I *D sky130_fd_sc_hd__a21oi_1
*I *291:Y O *D sky130_fd_sc_hd__a31oi_1
*CAP
1 *292:B1 0.000451078
2 *291:Y 0.000245688
3 *37:10 0.000696766
4 *292:B1 *296:A1 5.73654e-05
5 *292:B1 *327:CLK 1.61901e-05
6 *292:B1 *39:16 0.000144751
7 *292:B1 *53:14 9.6014e-05
8 *292:B1 *53:157 2.14404e-05
9 *292:B1 *82:41 2.79603e-05
10 *292:B1 *111:39 1.24376e-05
11 *292:B1 *111:72 0.000296177
12 *292:B1 *126:28 0.000242738
13 *37:10 *300:A1 1.9054e-05
14 *37:10 *300:D1 2.64616e-05
15 *37:10 *52:83 4.31152e-05
16 *37:10 *81:37 4.67488e-05
17 *21:10 *292:B1 7.59183e-06
18 *22:12 *292:B1 1.13812e-05
19 *23:8 *292:B1 8.78864e-05
20 *36:10 *292:B1 2.56281e-05
21 *36:25 *292:B1 7.5666e-05
*RES
1 *291:Y *37:10 41.9771 
2 *37:10 *292:B1 49.5793 
*END

*D_NET *38 0.00168501
*CONN
*I *296:A1 I *D sky130_fd_sc_hd__o21ai_1
*I *293:Y O *D sky130_fd_sc_hd__inv_2
*CAP
1 *296:A1 4.77696e-05
2 *293:Y 0.000539047
3 *38:10 0.000586816
4 *296:A1 *39:16 3.76905e-05
5 *296:A1 *111:39 1.3095e-05
6 *38:10 *293:A 2.92963e-05
7 *38:10 *335:A 0.000131177
8 *38:10 *92:10 8.57577e-05
9 *38:10 *112:27 0
10 *292:B1 *296:A1 5.73654e-05
11 *21:10 *296:A1 5.56356e-05
12 *21:10 *38:10 7.52305e-05
13 *22:12 *38:10 1.68502e-05
14 *36:37 *38:10 9.28078e-06
*RES
1 *293:Y *38:10 46.8036 
2 *38:10 *296:A1 40.2371 
*END

*D_NET *39 0.00138985
*CONN
*I *295:B1 I *D sky130_fd_sc_hd__o2111ai_1
*I *294:Y O *D sky130_fd_sc_hd__a21oi_1
*CAP
1 *295:B1 0
2 *294:Y 0.000505849
3 *39:16 0.000505849
4 *39:16 *295:D1 3.23857e-06
5 *39:16 *296:B1 7.78568e-05
6 *39:16 *82:49 7.51453e-06
7 *39:16 *104:134 0
8 *39:16 *111:14 8.48502e-06
9 *39:16 *111:39 4.53082e-05
10 *292:B1 *39:16 0.000144751
11 *296:A1 *39:16 3.76905e-05
12 *36:37 *39:16 5.3304e-05
*RES
1 *294:Y *39:16 31.7 
2 *39:16 *295:B1 23 
*END

*D_NET *40 0.000449254
*CONN
*I *296:B1 I *D sky130_fd_sc_hd__o21ai_1
*I *295:Y O *D sky130_fd_sc_hd__o2111ai_1
*CAP
1 *296:B1 0.000114884
2 *295:Y 0.000114884
3 *296:B1 *295:A2 2.95423e-05
4 *296:B1 *295:D1 5.47983e-06
5 *296:B1 *111:39 5.3304e-05
6 *36:25 *296:B1 5.3304e-05
7 *39:16 *296:B1 7.78568e-05
*RES
1 *295:Y *296:B1 48.5479 
*END

*D_NET *41 0.0010044
*CONN
*I *300:A1 I *D sky130_fd_sc_hd__o2111a_1
*I *297:X O *D sky130_fd_sc_hd__and3b_1
*CAP
1 *300:A1 3.28791e-05
2 *297:X 0.000173501
3 *41:10 0.00020638
4 *41:10 *53:14 0.000219822
5 *41:10 *111:72 0.000352765
6 *37:10 *300:A1 1.9054e-05
*RES
1 *297:X *41:10 42.64 
2 *41:10 *300:A1 38.8493 
*END

*D_NET *42 0.00146428
*CONN
*I *342:A I *D sky130_fd_sc_hd__dlygate4sd3_1
*I *299:B1 I *D sky130_fd_sc_hd__a21oi_1
*I *298:Y O *D sky130_fd_sc_hd__inv_2
*CAP
1 *342:A 0.000189826
2 *299:B1 0
3 *298:Y 0.000336119
4 *42:10 0.000525945
5 *342:A *112:43 0.000165547
6 *342:A *118:20 1.31945e-05
7 *42:10 *249:A 7.50825e-05
8 *42:10 *298:A 0
9 *42:10 *333:A 0.000140377
10 *42:10 *80:16 1.05658e-05
11 *42:10 *115:93 0
12 *42:10 *117:10 3.34276e-06
13 *42:10 *118:20 4.2812e-06
*RES
1 *298:Y *42:10 44.1729 
2 *42:10 *299:B1 38 
3 *42:10 *342:A 41.7079 
*END

*D_NET *43 0.00121816
*CONN
*I *300:A2 I *D sky130_fd_sc_hd__o2111a_1
*I *299:Y O *D sky130_fd_sc_hd__a21oi_1
*CAP
1 *300:A2 0
2 *299:Y 0.000372465
3 *43:12 0.000372465
4 *43:12 *299:A1 6.63793e-06
5 *43:12 *52:10 2.46399e-05
6 *43:12 *111:72 0.000168524
7 *43:12 *112:43 1.84831e-05
8 *43:12 *115:93 0.000200315
9 *43:12 *118:43 5.46338e-05
*RES
1 *299:Y *43:12 45.4157 
2 *43:12 *300:A2 38 
*END

*D_NET *44 0.00109553
*CONN
*I *301:A2_N I *D sky130_fd_sc_hd__o2bb2ai_1
*I *300:X O *D sky130_fd_sc_hd__o2111a_1
*CAP
1 *301:A2_N 0.000126469
2 *300:X 0.000134129
3 *44:8 0.000260599
4 *301:A2_N *126:28 0.000135037
5 *44:8 *290:B1 0.000141975
6 *44:8 *63:27 0.000297323
*RES
1 *300:X *44:8 42.0186 
2 *44:8 *301:A2_N 39.5743 
*END

*D_NET *45 0.00416837
*CONN
*I *224:A1 I *D sky130_fd_sc_hd__a21oi_1
*I *302:Y O *D sky130_fd_sc_hd__inv_2
*CAP
1 *224:A1 0
2 *302:Y 0.000196919
3 *45:16 0.0010468
4 *45:8 0.00124371
5 *45:8 *75:28 0.000138326
6 *45:8 *133:10 0
7 *45:16 *224:B1 0.000100477
8 *45:16 *232:A 0.000205905
9 *45:16 *51:32 0.000200967
10 *45:16 *66:10 0.000393373
11 *45:16 *101:12 0.000362107
12 *45:16 *101:38 0.000100061
13 *45:16 *114:57 0.000179725
*RES
1 *302:Y *45:8 42.0186 
2 *45:8 *45:16 34.2436 
3 *45:16 *224:A1 23 
*END

*D_NET *46 0.00635919
*CONN
*I *256:A1 I *D sky130_fd_sc_hd__o21bai_1
*I *308:A1 I *D sky130_fd_sc_hd__o21ai_4
*I *284:A1 I *D sky130_fd_sc_hd__o211ai_2
*I *303:X O *D sky130_fd_sc_hd__or2b_4
*CAP
1 *256:A1 0
2 *308:A1 0.000356965
3 *284:A1 0.000297966
4 *303:X 5.43738e-05
5 *46:58 0.00046726
6 *46:31 0.000945748
7 *46:10 0.00083127
8 *46:8 0.000466155
9 *284:A1 *287:C 0
10 *284:A1 *55:153 6.88566e-05
11 *284:A1 *87:26 3.25962e-05
12 *284:A1 *91:20 1.95533e-05
13 *284:A1 *110:18 2.18286e-05
14 *284:A1 *110:30 3.52734e-05
15 *308:A1 *253:A3 0.000179739
16 *308:A1 *49:18 2.02872e-05
17 *46:8 *303:A 2.64616e-05
18 *46:10 *287:D 9.51256e-05
19 *46:10 *59:10 0.000264884
20 *46:10 *80:112 0.00012216
21 *46:10 *97:20 0.00021738
22 *46:10 *110:30 0.000781624
23 *46:31 *51:8 1.13812e-05
24 *46:31 *80:112 6.28104e-05
25 *46:31 *87:26 5.15287e-05
26 *46:31 *133:34 2.23467e-05
27 *46:58 *253:A3 0.000306144
28 *46:58 *52:33 7.25929e-05
29 *46:58 *55:123 3.32202e-05
30 *46:58 *81:37 6.42455e-05
31 *46:58 *82:22 1.24376e-05
32 *46:58 *83:24 0.000166131
33 *46:58 *88:31 7.49462e-05
34 *46:58 *118:59 0.000175903
*RES
1 *303:X *46:8 38.6214 
2 *46:8 *46:10 11.5896 
3 *46:10 *284:A1 42.6918 
4 *46:10 *46:31 17.4339 
5 *46:31 *308:A1 28.4479 
6 *46:31 *46:58 39.3836 
7 *46:58 *256:A1 23 
*END

*D_NET *47 0.00630304
*CONN
*I *228:D I *D sky130_fd_sc_hd__nand4_4
*I *306:A I *D sky130_fd_sc_hd__nand3_4
*I *264:A4 I *D sky130_fd_sc_hd__a41oi_2
*I *304:Y O *D sky130_fd_sc_hd__nor2_4
*CAP
1 *228:D 5.20183e-05
2 *306:A 0
3 *264:A4 0.000153758
4 *304:Y 0.000125799
5 *47:37 0.000223838
6 *47:29 0.000724886
7 *47:10 0.00101477
8 *47:8 0.000537779
9 *228:D *62:54 5.21645e-05
10 *264:A4 *61:8 5.82853e-05
11 *264:A4 *104:79 9.02021e-05
12 *264:A4 *109:46 0
13 *47:8 *272:B 5.5792e-05
14 *47:8 *304:B 9.64943e-05
15 *47:8 *99:67 0.000405956
16 *47:8 *105:18 6.243e-05
17 *47:8 *105:20 0.000100486
18 *47:8 *106:18 1.56542e-05
19 *47:8 *106:35 0.000100061
20 *47:10 *48:23 5.0518e-05
21 *47:10 *104:58 0.000290908
22 *47:10 *104:79 3.65489e-05
23 *47:10 *106:35 8.64543e-05
24 *47:10 *136:25 5.45748e-05
25 *47:29 *48:23 0.000300991
26 *47:29 *48:74 0.000296768
27 *47:29 *62:54 4.44275e-05
28 *47:29 *108:10 0.000131354
29 *47:29 *108:51 2.64616e-05
30 *47:29 *108:62 0.000241032
31 *47:37 *80:114 6.70361e-05
32 *47:37 *108:68 5.58138e-05
33 *47:37 *110:30 0.000216415
34 *279:A1 *264:A4 1.61385e-05
35 *25:10 *264:A4 0.000161041
36 *25:10 *47:10 0.000356185
*RES
1 *304:Y *47:8 42.9093 
2 *47:8 *47:10 9.30071 
3 *47:10 *264:A4 41.7079 
4 *47:10 *47:29 25.3157 
5 *47:29 *47:37 34.5364 
6 *47:37 *306:A 23 
7 *47:29 *228:D 24.1186 
*END

*D_NET *48 0.00867588
*CONN
*I *306:B I *D sky130_fd_sc_hd__nand3_4
*I *228:B I *D sky130_fd_sc_hd__nand4_4
*I *264:A2 I *D sky130_fd_sc_hd__a41oi_2
*I *277:A I *D sky130_fd_sc_hd__nor3_1
*I *278:A1 I *D sky130_fd_sc_hd__o21a_1
*I *274:A1 I *D sky130_fd_sc_hd__o21a_1
*I *305:Y O *D sky130_fd_sc_hd__inv_2
*CAP
1 *306:B 0.000169934
2 *228:B 2.78083e-05
3 *264:A2 2.32701e-05
4 *277:A 0.000570348
5 *278:A1 1.7859e-05
6 *274:A1 8.65273e-05
7 *305:Y 0
8 *48:74 0.000389874
9 *48:37 0.00114554
10 *48:27 0.000699051
11 *48:23 0.00106811
12 *48:4 0.000844058
13 *228:B *79:8 6.07306e-05
14 *228:B *108:68 6.07306e-05
15 *264:A2 *61:8 5.3304e-05
16 *274:A1 *274:B1 4.65192e-05
17 *274:A1 *107:14 1.3523e-05
18 *274:A1 *107:28 1.12349e-05
19 *277:A *277:B 5.3304e-05
20 *277:A *285:A1 5.50049e-05
21 *277:A *109:20 4.03068e-05
22 *277:A *120:10 4.38353e-05
23 *278:A1 *278:B1 0.000102389
24 *278:A1 *78:26 0.000100061
25 *306:B *79:8 0.000150907
26 *306:B *80:114 0.000140935
27 *306:B *108:68 0.000158796
28 *48:23 *349:A 0.000124892
29 *48:23 *104:79 0.000111106
30 *48:23 *107:14 1.02535e-05
31 *48:23 *107:28 7.717e-05
32 *48:27 *61:14 0.000185246
33 *48:37 *59:35 3.2252e-06
34 *48:37 *61:14 9.28078e-06
35 *48:37 *62:18 1.31002e-05
36 *48:37 *91:39 0
37 *48:37 *93:20 0.00050869
38 *48:37 *109:46 0
39 *3:21 *264:A2 5.3304e-05
40 *26:8 *277:A 1.16455e-05
41 *30:18 *48:27 0.000227053
42 *30:18 *48:37 4.36457e-05
43 *32:16 *277:A 0.000128654
44 *32:28 *277:A 0.000193187
45 *35:10 *277:A 0.000193187
46 *47:10 *48:23 5.0518e-05
47 *47:29 *48:23 0.000300991
48 *47:29 *48:74 0.000296768
*RES
1 *305:Y *48:4 23 
2 *48:4 *274:A1 24.9471 
3 *48:4 *48:23 41.3721 
4 *48:23 *48:27 18.3143 
5 *48:27 *48:37 20.4598 
6 *48:37 *278:A1 39.0979 
7 *48:37 *277:A 47.6736 
8 *48:27 *264:A2 38.6214 
9 *48:23 *48:74 18.48 
10 *48:74 *228:B 38.8493 
11 *48:74 *306:B 42.3293 
*END

*D_NET *49 0.00595246
*CONN
*I *284:A2 I *D sky130_fd_sc_hd__o211ai_2
*I *256:A2 I *D sky130_fd_sc_hd__o21bai_1
*I *308:A2 I *D sky130_fd_sc_hd__o21ai_4
*I *306:Y O *D sky130_fd_sc_hd__nand3_4
*CAP
1 *284:A2 0
2 *256:A2 0
3 *308:A2 0
4 *306:Y 0.000537032
5 *49:37 0.000642409
6 *49:18 0.000851929
7 *49:10 0.000746552
8 *49:10 *274:B1 1.24376e-05
9 *49:10 *330:A 0.00040115
10 *49:10 *59:35 0
11 *49:10 *62:8 2.72882e-05
12 *49:10 *62:18 9.13745e-05
13 *49:10 *80:114 0.000122599
14 *49:10 *100:12 0.000162262
15 *49:18 *253:A3 0.000123088
16 *49:18 *52:60 6.17437e-06