*SPEF "ieee 1481-1999"
*DESIGN "pes_brg"
*DATE "11:11:11 Fri 11 11, 1111"
*VENDOR "OpenRCX"
*PROGRAM "Parallel Extraction"
*VERSION "1.0"
*DESIGN_FLOW "NAME_SCOPE LOCAL" "PIN_CAP NONE"
*DIVIDER /
*DELIMITER :
*BUS_DELIMITER []
*T_UNIT 1 NS
*C_UNIT 1 PF
*R_UNIT 1 OHM
*L_UNIT 1 HENRY

*NAME_MAP
*3 clk
*4 clkout
*5 reset
*6 sel[0]
*7 sel[1]
*8 _000_
*9 _001_
*10 _002_
*11 _003_
*12 _004_
*13 _005_
*14 _006_
*15 _007_
*16 _008_
*17 _009_
*18 _010_
*19 _011_
*20 _012_
*21 _013_
*22 _014_
*23 _015_
*24 _016_
*25 _017_
*26 _018_
*27 _019_
*28 _020_
*29 _021_
*30 _022_
*31 _023_
*32 _024_
*33 _025_
*34 _026_
*35 _027_
*36 _028_
*37 _029_
*38 _030_
*39 _031_
*40 _032_
*41 _033_
*42 _034_
*43 _035_
*44 _036_
*45 _037_
*46 _038_
*47 _039_
*48 _040_
*49 _041_
*50 _042_
*51 _043_
*52 _044_
*53 _045_
*54 _046_
*55 _047_
*56 _048_
*57 _049_
*58 _050_
*59 _051_
*60 _052_
*61 _053_
*62 _054_
*63 _055_
*64 _056_
*65 _057_
*66 _058_
*67 _059_
*68 _060_
*69 _061_
*70 _062_
*71 _063_
*72 _064_
*73 _065_
*74 _066_
*75 _067_
*76 _068_
*77 _069_
*78 _070_
*79 _071_
*80 _072_
*81 _073_
*82 _074_
*83 _075_
*84 _076_
*85 _077_
*86 _078_
*87 _079_
*88 _080_
*89 _081_
*90 _082_
*91 _083_
*92 _084_
*93 _085_
*94 _086_
*95 _087_
*96 _088_
*97 _089_
*98 _090_
*99 _091_
*100 clknet_0_clk
*101 clknet_1_0__leaf_clk
*102 clknet_1_1__leaf_clk
*103 cnt1\[0\]
*104 cnt1\[1\]
*105 cnt1\[2\]
*106 cnt1\[3\]
*107 cnt1\[4\]
*108 cnt1\[5\]
*109 cnt2\[0\]
*110 cnt2\[1\]
*111 cnt3\[0\]
*112 cnt3\[1\]
*113 cnt3\[2\]
*114 cnt4\[0\]
*115 cnt4\[1\]
*116 cnt4\[2\]
*117 cnt4\[3\]
*118 net1
*119 net10
*120 net12
*121 net13
*122 net14
*123 net15
*124 net17
*125 net18
*126 net2
*127 net20
*128 net21
*129 net22
*130 net23
*131 net24
*132 net28
*133 net3
*134 net4
*135 net5
*136 net6
*137 net7
*138 net8
*139 net9
*140 FILLER_0_0_46
*141 FILLER_0_0_82
*142 FILLER_0_10_27
*143 FILLER_0_10_61
*144 FILLER_0_10_81
*145 FILLER_0_11_12
*146 FILLER_0_11_41
*147 FILLER_0_11_65
*148 FILLER_0_12_29
*149 FILLER_0_12_3
*150 FILLER_0_13_23
*151 FILLER_0_13_3
*152 FILLER_0_13_40
*153 FILLER_0_13_51
*154 FILLER_0_13_55
*155 FILLER_0_13_65
*156 FILLER_0_1_57
*157 FILLER_0_1_82
*158 FILLER_0_1_9
*159 FILLER_0_3_3
*160 FILLER_0_4_29
*161 FILLER_0_4_3
*162 FILLER_0_4_41
*163 FILLER_0_4_70
*164 FILLER_0_4_79
*165 FILLER_0_5_54
*166 FILLER_0_5_78
*167 FILLER_0_6_11
*168 FILLER_0_6_26
*169 FILLER_0_6_3
*170 FILLER_0_6_58
*171 FILLER_0_6_73
*172 FILLER_0_7_16
*173 FILLER_0_9_12
*174 FILLER_0_9_55
*175 FILLER_0_9_82
*176 PHY_0
*177 PHY_1
*178 PHY_10
*179 PHY_11
*180 PHY_12
*181 PHY_13
*182 PHY_14
*183 PHY_15
*184 PHY_16
*185 PHY_17
*186 PHY_18
*187 PHY_19
*188 PHY_2
*189 PHY_20
*190 PHY_21
*191 PHY_22
*192 PHY_23
*193 PHY_24
*194 PHY_25
*195 PHY_26
*196 PHY_27
*197 PHY_3
*198 PHY_4
*199 PHY_5
*200 PHY_6
*201 PHY_7
*202 PHY_8
*203 PHY_9
*204 TAP_28
*205 TAP_29
*206 TAP_30
*207 TAP_31
*208 TAP_32
*209 TAP_33
*210 TAP_34
*211 TAP_35
*212 TAP_36
*213 TAP_37
*214 TAP_38
*215 TAP_39
*216 TAP_40
*217 TAP_41
*218 TAP_42
*219 TAP_43
*220 _092_
*221 _093_
*222 _094_
*223 _095_
*224 _096_
*225 _097_
*226 _098_
*227 _099_
*228 _100_
*229 _101_
*230 _102_
*231 _103_
*232 _104_
*233 _105_
*234 _106_
*235 _107_
*236 _108_
*237 _109_
*238 _110_
*239 _111_
*240 _112_
*241 _113_
*242 _114_
*243 _115_
*244 _116_
*245 _117_
*246 _118_
*247 _119_
*248 _120_
*249 _121_
*250 _122_
*251 _123_
*252 _124_
*253 _125_
*254 _126_
*255 _127_
*256 _128_
*257 _129_
*258 _130_
*259 _131_
*260 _132_
*261 _133_
*262 _134_
*263 _135_
*264 _136_
*265 _137_
*266 _138_
*267 _139_
*268 _140_
*269 _141_
*270 _142_
*271 _143_
*272 _144_
*273 _145_
*274 _146_
*275 _147_
*276 _148_
*277 _149_
*278 _150_
*279 _151_
*280 _152_
*281 _153_
*282 _154_
*283 _155_
*284 _156_
*285 _157_
*286 _158_
*287 _159_
*288 _160_
*289 _161_
*290 _162_
*291 _163_
*292 _164_
*293 _165_
*294 _166_
*295 _167_
*296 _168_
*297 _169_
*298 _170_
*299 _171_
*300 _172_
*301 _173_
*302 _174_
*303 _175_
*304 _176_
*305 _177_
*306 _178_
*307 _179_
*308 _180_
*309 _181_
*310 _182_
*311 _183_
*312 _184_
*313 _185_
*314 _186_
*315 _187_
*316 _188_
*317 _189_
*318 _190_
*319 _191_
*320 _192_
*321 _193_
*322 _194_
*323 _195_
*324 _196_
*325 _197_
*326 _198_
*327 _199_
*328 clkbuf_0_clk
*329 clkbuf_1_0__f_clk
*330 clkbuf_1_1__f_clk
*331 hold10
*332 hold11
*333 hold13
*334 hold14
*335 hold16
*336 hold17
*337 hold18
*338 hold19
*339 hold20
*340 hold24
*341 hold8
*342 hold9
*343 input1
*344 input2
*345 input3
*346 output4
*347 rebuffer1
*348 rebuffer2
*349 rebuffer3
*350 rebuffer4
*351 rebuffer5
*352 rebuffer6

*PORTS
clk I
clkout O
reset I
sel[0] I
sel[1] I

*D_NET *3 0.00542975
*CONN
*P clk I
*I *328:A I *D sky130_fd_sc_hd__clkbuf_16
*CAP
1 clk 0.00181488
2 *328:A 0.00181488
3 *328:A *227:A_N 3.20387e-05
4 *328:A *264:A2 5.33005e-05
5 *328:A *264:B1 0.000177853
6 *328:A *268:B1 0.000214519
7 *328:A *275:A4 0.000124749
8 *328:A *319:D 7.27763e-05
9 *328:A *30:18 2.22444e-05
10 *328:A *61:8 9.94933e-05
11 *328:A *62:24 1.25101e-05
12 *328:A *78:16 0.000469812
13 *328:A *93:6 5.33005e-05
14 *328:A *102:25 2.3942e-05
15 *328:A *102:38 5.82471e-05
16 *328:A *108:14 0.00012535
17 *328:A *109:56 0.000259855
*RES
1 clk *328:A 36.6203 
*END

*D_NET *4 0.00175432
*CONN
*P clkout O
*I *346:X O *D sky130_fd_sc_hd__clkbuf_4
*CAP
1 clkout 0.000869558
2 *346:X 0.000869558
3 clkout *101:12 1.52013e-05
*RES
1 *346:X clkout 29.8179 
*END

*D_NET *5 0.00100027
*CONN
*P reset I
*I *343:A I *D sky130_fd_sc_hd__buf_1
*CAP
1 reset 0.000413655
2 *343:A 0.000413655
3 *343:A *113:25 0.000172965
*RES
1 reset *343:A 22.9417 
*END

*D_NET *6 0.00172636
*CONN
*P sel[0] I
*I *344:A I *D sky130_fd_sc_hd__buf_1
*CAP
1 sel[0] 0.000743792
2 *344:A 0.000743792
3 *344:A *226:B 5.17099e-05
4 *344:A *347:A 5.49544e-05
5 *344:A *350:A 7.57394e-05
6 *344:A *60:10 3.08664e-05
7 *344:A *103:81 6.05161e-06
8 *344:A *119:24 1.94579e-05
*RES
1 sel[0] *344:A 27.8893 
*END

*D_NET *7 0.00868212
*CONN
*P sel[1] I
*I *345:A I *D sky130_fd_sc_hd__buf_1
*CAP
1 sel[1] 0.00301907
2 *345:A 0.00301907
3 *345:A *232:B 0.0017459
4 *345:A *243:A2 9.87358e-05
5 *345:A *243:B1 0
6 *345:A *244:A 0.000189078
7 *345:A *252:B 7.24409e-05
8 *345:A *254:A 0.000376212
9 *345:A *346:A 1.50689e-05
10 *345:A *71:18 0
11 *345:A *75:16 0
12 *345:A *116:44 0.000132253
13 *345:A *133:24 1.42791e-05
*RES
1 sel[1] *345:A 35.9967 
*END

*D_NET *8 0.000623585
*CONN
*I *312:D I *D sky130_fd_sc_hd__dfxtp_2
*I *224:Y O *D sky130_fd_sc_hd__a21oi_1
*CAP
1 *312:D 8.92248e-05
2 *224:Y 8.92248e-05
3 *312:D *252:A 8.6197e-05
4 *312:D *254:A 0.000114804
5 *312:D *84:16 8.44271e-06
6 *312:D *101:51 8.42737e-05
7 *312:D *101:59 0.000151418
*RES
1 *224:Y *312:D 30.658 
*END

*D_NET *9 0.00103514
*CONN
*I *313:D I *D sky130_fd_sc_hd__dfxtp_1
*I *234:X O *D sky130_fd_sc_hd__a22o_1
*CAP
1 *313:D 0.000335819
2 *234:X 0.000335819
3 *313:D *221:B 2.41461e-05
4 *313:D *221:C 0.000122919
5 *313:D *234:A1 6.82538e-05
6 *313:D *234:A2 7.70345e-05
7 *313:D *313:CLK 1.62025e-05
8 *313:D *315:CLK 5.49489e-05
*RES
1 *234:X *313:D 34.6 
*END

*D_NET *10 0.00181331
*CONN
*I *314:D I *D sky130_fd_sc_hd__dfxtp_1
*I *240:Y O *D sky130_fd_sc_hd__a2bb2oi_1
*CAP
1 *314:D 0.000412562
2 *240:Y 0.000412562
3 *314:D *221:A 0.000315197
4 *314:D *237:A2 0
5 *314:D *240:B1 7.62712e-05
6 *314:D *69:14 9.83442e-05
7 *314:D *69:18 9.60875e-05
8 *314:D *69:56 8.70886e-05
9 *314:D *83:18 0
10 *314:D *101:70 0.000315197
*RES
1 *240:Y *314:D 36.1759 
*END

*D_NET *11 0.000725727
*CONN
*I *315:D I *D sky130_fd_sc_hd__dfxtp_1
*I *245:X O *D sky130_fd_sc_hd__a32o_1
*CAP
1 *315:D 0.000260918
2 *245:X 0.000260918
3 *315:D *234:A1 4.52673e-05
4 *315:D *234:A2 2.38651e-06
5 *315:D *234:B2 8.52807e-05
6 *315:D *241:B 0
7 *315:D *245:A2 5.01649e-06
8 *315:D *245:A3 6.59408e-05
*RES
1 *245:X *315:D 31.7071 
*END

*D_NET *12 0.000479761
*CONN
*I *316:D I *D sky130_fd_sc_hd__dfxtp_1
*I *260:Y O *D sky130_fd_sc_hd__a22oi_1
*CAP
1 *316:D 0.000142147
2 *260:Y 0.000142147
3 *316:D *254:A 1.51611e-06
4 *316:D *260:A2 5.95283e-05
5 *316:D *316:CLK 1.00733e-05
6 *316:D *101:51 0.000124349
*RES
1 *260:Y *316:D 21.6536 
*END

*D_NET *13 0.000393159
*CONN
*I *317:D I *D sky130_fd_sc_hd__dfxtp_4
*I *263:X O *D sky130_fd_sc_hd__clkbuf_1
*CAP
1 *317:D 0.000131596
2 *263:X 0.000131596
3 *317:D *102:77 0.000129968
*RES
1 *263:X *317:D 21.35 
*END

*D_NET *14 0.000986386
*CONN
*I *318:D I *D sky130_fd_sc_hd__dfxtp_2
*I *267:X O *D sky130_fd_sc_hd__a32o_1
*CAP
1 *318:D 0.000244992
2 *267:X 0.000244992
3 *318:D *262:A0 0.000146254
4 *318:D *267:A2 9.96487e-05
5 *318:D *102:68 0.000128986
6 *318:D *102:77 2.12647e-05
7 *318:D *103:12 0.000100248
*RES
1 *267:X *318:D 32.9973 
*END

*D_NET *15 0.00140745
*CONN
*I *319:D I *D sky130_fd_sc_hd__dfxtp_2
*I *270:X O *D sky130_fd_sc_hd__a2bb2o_1
*CAP
1 *319:D 0.000313069
2 *270:X 0.000313069
3 *319:D *268:A2 7.74135e-05
4 *319:D *268:B1 6.07037e-07
5 *319:D *270:A1_N 9.75679e-05
6 *319:D *273:B1 0.000198705
7 *319:D *351:A 1.52217e-05
8 *319:D *102:38 1.00887e-05
9 *319:D *102:55 8.7892e-05
10 *319:D *104:35 0.000188998
11 *319:D *105:18 3.20441e-05
12 *328:A *319:D 7.27763e-05
*RES
1 *270:X *319:D 34.2964 
*END

*D_NET *16 0.000249427
*CONN
*I *320:D I *D sky130_fd_sc_hd__dfxtp_1
*I *273:X O *D sky130_fd_sc_hd__a32o_1
*CAP
1 *320:D 9.40551e-05
2 *273:X 9.40551e-05
3 *320:D *271:A2 3.03275e-05
4 *320:D *320:CLK 3.09893e-05
*RES
1 *273:X *320:D 20.2295 
*END

*D_NET *17 0.00104104
*CONN
*I *321:D I *D sky130_fd_sc_hd__dfxtp_1
*I *276:X O *D sky130_fd_sc_hd__a22o_1
*CAP
1 *321:D 0.00026959
2 *276:X 0.00026959
3 *321:D *275:A1 9.23184e-05
4 *321:D *275:B1 1.64343e-05
5 *321:D *276:A1 0.000309187
6 *321:D *322:CLK 8.39228e-05
*RES
1 *276:X *321:D 33.9616 
*END

*D_NET *18 0.000828693
*CONN
*I *322:D I *D sky130_fd_sc_hd__dfxtp_2
*I *280:X O *D sky130_fd_sc_hd__a21o_1
*CAP
1 *322:D 0.000160811
2 *280:X 0.000160811
3 *322:D *279:A2 7.74135e-05
4 *322:D *279:B1 2.02794e-05
5 *322:D *280:A1 8.58443e-05
6 *322:D *280:B1 1.84865e-05
7 *322:D *322:CLK 1.64343e-05
8 *322:D *99:20 0.000288612
*RES
1 *280:X *322:D 32.0687 
*END

*D_NET *19 0.000805688
*CONN
*I *323:D I *D sky130_fd_sc_hd__dfxtp_1
*I *286:Y O *D sky130_fd_sc_hd__a22oi_1
*CAP
1 *323:D 0.000364141
2 *286:Y 0.000364141
3 *323:D *283:B1 0
4 *323:D *302:A 7.74068e-05
*RES
1 *286:Y *323:D 33.533 
*END

*D_NET *20 0.00097774
*CONN
*I *324:D I *D sky130_fd_sc_hd__dfxtp_1
*I *289:Y O *D sky130_fd_sc_hd__a32oi_1
*CAP
1 *324:D 0.000326971
2 *289:Y 0.000326971
3 *324:D *288:C 0.000199397
4 *324:D *289:B2 2.85321e-05
5 *324:D *110:18 9.58689e-05
*RES
1 *289:Y *324:D 25.3723 
*END

*D_NET *21 0.000688505
*CONN
*I *325:D I *D sky130_fd_sc_hd__dfxtp_1
*I *292:Y O *D sky130_fd_sc_hd__a21oi_1
*CAP
1 *325:D 0.00016823
2 *292:Y 0.00016823
3 *325:D *263:A 7.99677e-06
4 *325:D *292:B1 8.01831e-06
5 *325:D *295:A2 4.87669e-06
6 *325:D *296:A1 0.000127673
7 *325:D *326:D 0.00015018
8 *325:D *36:25 5.33005e-05
*RES
1 *292:Y *325:D 31.0688 
*END

*D_NET *22 0.00138315
*CONN
*I *326:D I *D sky130_fd_sc_hd__dfxtp_1
*I *296:Y O *D sky130_fd_sc_hd__o21ai_1
*CAP
1 *326:D 0.000321262
2 *296:Y 0.000321262
3 *326:D *263:A 0.00012049
4 *326:D *292:A2 2.13761e-05
5 *326:D *292:B1 1.00887e-05
6 *326:D *295:A1 2.02794e-05
7 *326:D *296:A1 1.77381e-05
8 *326:D *326:CLK 0.000115208
9 *326:D *327:CLK 6.28917e-05
10 *326:D *36:25 7.74068e-05
11 *326:D *102:83 0.000144963
12 *325:D *326:D 0.00015018
*RES
1 *296:Y *326:D 36.4437 
*END

*D_NET *23 0.000357273
*CONN
*I *327:D I *D sky130_fd_sc_hd__dfxtp_1
*I *301:Y O *D sky130_fd_sc_hd__o2bb2ai_1
*CAP
1 *327:D 9.25407e-05
2 *301:Y 9.25407e-05
3 *327:D *292:B1 7.89362e-05
4 *327:D *36:10 7.74135e-05
5 *327:D *53:18 1.58416e-05
*RES
1 *301:Y *327:D 29.8143 
*END

*D_NET *24 0.00112093
*CONN
*I *276:B1 I *D sky130_fd_sc_hd__a22o_1
*I *274:X O *D sky130_fd_sc_hd__o21a_1
*CAP
1 *276:B1 0.000378086
2 *274:X 0.000378086
3 *276:B1 *276:B2 9.99853e-05
4 *276:B1 *279:A1 2.12087e-05
5 *276:B1 *279:B1 9.41642e-05
6 *276:B1 *99:20 0.000149401
*RES
1 *274:X *276:B1 34.7786 
*END

*D_NET *25 0.00226747
*CONN
*I *276:B2 I *D sky130_fd_sc_hd__a22o_1
*I *275:X O *D sky130_fd_sc_hd__a41o_1
*CAP
1 *276:B2 0.000472822
2 *275:X 0.000472822
3 *276:B2 *227:A_N 0.000124349
4 *276:B2 *227:B 0.000297785
5 *276:B2 *264:A4 0.000145492
6 *276:B2 *275:A1 5.47176e-05
7 *276:B2 *276:A1 3.29735e-05
8 *276:B2 *279:A1 0.000120492
9 *276:B2 *322:CLK 0.000125285
10 *276:B2 *47:10 0.000320741
11 *276:B1 *276:B2 9.99853e-05
*RES
1 *275:X *276:B2 40.3857 
*END

*D_NET *26 0.00308632
*CONN
*I *279:A1 I *D sky130_fd_sc_hd__o21a_1
*I *277:Y O *D sky130_fd_sc_hd__nor3_1
*CAP
1 *279:A1 0.000766546
2 *277:Y 0.000766546
3 *279:A1 *227:A_N 3.01245e-06
4 *279:A1 *227:B 0.000355329
5 *279:A1 *264:A4 1.62025e-05
6 *279:A1 *277:A 1.12578e-05
7 *279:A1 *32:16 0.000124012
8 *279:A1 *32:28 0.00028786
9 *279:A1 *61:8 5.23735e-05
10 *279:A1 *109:14 5.7616e-05
11 *279:A1 *109:56 0.000503867
12 *276:B1 *279:A1 2.12087e-05
13 *276:B2 *279:A1 0.000120492
*RES
1 *277:Y *279:A1 42.5643 
*END

*D_NET *27 0.000634305
*CONN
*I *279:A2 I *D sky130_fd_sc_hd__o21a_1
*I *278:X O *D sky130_fd_sc_hd__o21a_1
*CAP
1 *279:A2 0.000203658
2 *278:X 0.000203658
3 *279:A2 *280:A1 9.57271e-05
4 *279:A2 *280:A2 3.05522e-05
5 *279:A2 *280:B1 4.93118e-06
6 *279:A2 *91:22 1.24368e-05
7 *279:A2 *99:20 5.92875e-06
8 *322:D *279:A2 7.74135e-05
*RES
1 *278:X *279:A2 30.8143 
*END

*D_NET *28 0.000487201
*CONN
*I *280:B1 I *D sky130_fd_sc_hd__a21o_1
*I *279:X O *D sky130_fd_sc_hd__o21a_1
*CAP
1 *280:B1 0.000185834
2 *279:X 0.000185834
3 *280:B1 *99:20 9.21152e-05
4 *279:A2 *280:B1 4.93118e-06
5 *322:D *280:B1 1.84865e-05
*RES
1 *279:X *280:B1 31.4393 
*END

*D_NET *29 0.0031103
*CONN
*I *289:A1 I *D sky130_fd_sc_hd__a32oi_1
*I *285:C1 I *D sky130_fd_sc_hd__o2111ai_1
*I *288:B I *D sky130_fd_sc_hd__nand3_1
*I *286:A1 I *D sky130_fd_sc_hd__a22oi_1
*I *281:Y O *D sky130_fd_sc_hd__a21oi_2
*CAP
1 *289:A1 0
2 *285:C1 0
3 *288:B 0.000157861
4 *286:A1 0.00015058
5 *281:Y 0.000239887
6 *29:37 0.000157861
7 *29:24 0.000873521
8 *29:6 0.000962828
9 *286:A1 *244:B 0
10 *286:A1 *286:B1 3.63281e-05
11 *286:A1 *324:CLK 0
12 *288:B *288:A 4.35597e-05
13 *288:B *288:C 7.43578e-06
14 *288:B *32:28 5.8945e-05
15 *29:6 *281:A2 2.42516e-05
16 *29:6 *289:A3 1.65169e-05
17 *29:6 *80:60 6.05161e-06
18 *29:6 *110:18 5.20359e-06
19 *29:24 *245:A3 2.26428e-05
20 *29:24 *277:C 0.000181044
21 *29:24 *285:A2 1.01912e-05
22 *29:24 *286:B1 1.21398e-05
23 *29:24 *288:C 0
24 *29:24 *289:B1 5.62389e-05
25 *29:24 *289:B2 8.06384e-05
26 *29:24 *324:CLK 0
27 *29:24 *110:18 6.57828e-06
*RES
1 *281:Y *29:6 11.8893 
2 *29:6 *29:24 17.0905 
3 *29:24 *286:A1 15.9786 
4 *29:24 *29:37 4.5 
5 *29:37 *288:B 11.4964 
6 *29:37 *285:C1 9.3 
7 *29:6 *289:A1 9.3 
*END

*D_NET *30 0.00550065
*CONN
*I *334:A I *D sky130_fd_sc_hd__dlygate4sd3_1
*I *283:B1 I *D sky130_fd_sc_hd__a31oi_1
*I *282:Y O *D sky130_fd_sc_hd__inv_2
*CAP
1 *334:A 0
2 *283:B1 0.000206921
3 *282:Y 0.000850189
4 *30:18 0.00105711
5 *283:B1 *283:A2 1.11476e-05
6 *283:B1 *283:A3 6.05161e-06
7 *283:B1 *285:B1 0.000184306
8 *283:B1 *286:A2 0.000100464
9 *283:B1 *80:78 9.15842e-06
10 *283:B1 *109:14 5.49489e-05
11 *283:B1 *133:24 0.000139907
12 *30:18 *247:A 0.000228592
13 *30:18 *248:B 1.46148e-05
14 *30:18 *257:B 6.8646e-06
15 *30:18 *275:A4 1.6815e-05
16 *30:18 *281:A2 0.00023134
17 *30:18 *283:A3 0.000129855
18 *30:18 *348:A 0.000428044
19 *30:18 *48:27 0.000204936
20 *30:18 *48:37 4.04292e-05
21 *30:18 *62:24 9.56235e-05
22 *30:18 *78:16 0.000551235
23 *30:18 *80:72 0.000381531
24 *30:18 *110:18 2.07809e-05
25 *30:18 *133:24 0.000385639
26 *30:18 *136:12 0.000121897
27 *323:D *283:B1 0
28 *328:A *30:18 2.22444e-05
*RES
1 *282:Y *30:18 42.8 
2 *30:18 *283:B1 23.175 
3 *30:18 *334:A 9.3 
*END

*D_NET *31 0.00103865
*CONN
*I *286:A2 I *D sky130_fd_sc_hd__a22oi_1
*I *283:Y O *D sky130_fd_sc_hd__a31oi_1
*CAP
1 *286:A2 0.000230599
2 *283:Y 0.000230599
3 *286:A2 *286:B1 3.88392e-05
4 *286:A2 *302:A 0.000167733
5 *286:A2 *133:24 0.000270414
6 *283:B1 *286:A2 0.000100464
*RES
1 *283:Y *286:A2 33.1848 
*END

*D_NET *32 0.00312414
*CONN
*I *289:A2 I *D sky130_fd_sc_hd__a32oi_1
*I *285:D1 I *D sky130_fd_sc_hd__o2111ai_1
*I *288:A I *D sky130_fd_sc_hd__nand3_1
*I *284:Y O *D sky130_fd_sc_hd__o211ai_2
*CAP
1 *289:A2 0
2 *285:D1 0
3 *288:A 2.52542e-05
4 *284:Y 0.000243915
5 *32:28 0.000507584
6 *32:16 0.000726245
7 *288:A *289:B1 3.67252e-05
8 *32:16 *277:A 0.000115591
9 *32:16 *278:B1 0.000135028
10 *32:16 *284:C1 2.59355e-05
11 *32:16 *78:16 6.88374e-05
12 *32:16 *91:22 9.85599e-06
13 *32:16 *110:18 3.50166e-05
14 *32:28 *277:A 0.000173159
15 *32:28 *277:C 0.000183213
16 *32:28 *285:B1 0.000303207
17 *32:28 *288:C 3.99614e-06
18 *32:28 *289:B1 1.61956e-05
19 *279:A1 *32:16 0.000124012
20 *279:A1 *32:28 0.00028786
21 *288:B *288:A 4.35597e-05
22 *288:B *32:28 5.8945e-05
*RES
1 *284:Y *32:16 19.425 
2 *32:16 *32:28 14.7143 
3 *32:28 *288:A 10.2464 
4 *32:28 *285:D1 9.3 
5 *32:16 *289:A2 13.8 
*END

*D_NET *33 0.000523239
*CONN
*I *286:B1 I *D sky130_fd_sc_hd__a22oi_1
*I *285:Y O *D sky130_fd_sc_hd__o2111ai_1
*CAP
1 *286:B1 0.000204929
2 *285:Y 0.000204929
3 *286:B1 *302:A 2.0023e-05
4 *286:B1 *324:CLK 0
5 *286:B1 *133:24 6.05161e-06
6 *286:A1 *286:B1 3.63281e-05
7 *286:A2 *286:B1 3.88392e-05
8 *29:24 *286:B1 1.21398e-05
*RES
1 *285:Y *286:B1 31.1357 
*END

*D_NET *34 0.00211553
*CONN
*I *289:A3 I *D sky130_fd_sc_hd__a32oi_1
*I *287:X O *D sky130_fd_sc_hd__or4_1
*CAP
1 *289:A3 0.000492436
2 *287:X 0.000492436
3 *289:A3 *281:A2 0.000177545
4 *289:A3 *281:B1 8.61848e-05
5 *289:A3 *284:B1 7.70035e-05
6 *289:A3 *289:B1 1.19813e-05
7 *289:A3 *329:A 1.67953e-05
8 *289:A3 *49:18 9.91224e-05
9 *289:A3 *80:60 3.63575e-05
10 *289:A3 *110:18 0.000609154
11 *29:6 *289:A3 1.65169e-05
*RES
1 *287:X *289:A3 36.9929 
*END

*D_NET *35 0.00170713
*CONN
*I *289:B1 I *D sky130_fd_sc_hd__a32oi_1
*I *288:Y O *D sky130_fd_sc_hd__nand3_1
*CAP
1 *289:B1 0.00052916
2 *288:Y 0.00052916
3 *289:B1 *277:A 0.000173159
4 *289:B1 *277:C 2.30116e-06
5 *289:B1 *285:A1 0.000269449
6 *289:B1 *285:B1 4.98342e-05
7 *289:B1 *289:B2 3.29297e-05
8 *288:A *289:B1 3.67252e-05
9 *289:A3 *289:B1 1.19813e-05
10 *29:24 *289:B1 5.62389e-05
11 *32:28 *289:B1 1.61956e-05
*RES
1 *288:Y *289:B1 36.0464 
*END

*D_NET *36 0.00284271
*CONN
*I *296:A2 I *D sky130_fd_sc_hd__o21ai_1
*I *292:A2 I *D sky130_fd_sc_hd__a21oi_1
*I *301:B2 I *D sky130_fd_sc_hd__o2bb2ai_1
*I *290:Y O *D sky130_fd_sc_hd__a211oi_2
*CAP
1 *296:A2 0
2 *292:A2 0.000271819
3 *301:B2 5.88772e-05
4 *290:Y 0.000188368
5 *36:25 0.000490742
6 *36:10 0.000466168
7 *292:A2 *292:A1 2.84026e-05
8 *292:A2 *295:A1 4.11741e-05
9 *292:A2 *295:B1 5.33005e-05
10 *292:A2 *296:A1 8.6229e-06
11 *292:A2 *111:14 6.05161e-06
12 *301:B2 *225:A 5.50052e-05
13 *36:10 *292:B1 2.47319e-05
14 *36:10 *327:CLK 0.000121897
15 *36:10 *53:18 4.83019e-06
16 *36:10 *53:20 4.00276e-06
17 *36:10 *53:32 4.00276e-06
18 *36:25 *225:A 0.00021796
19 *36:25 *292:B1 7.37367e-05
20 *36:25 *295:A1 2.24804e-05
21 *36:25 *296:B1 5.33005e-05
22 *36:25 *327:CLK 0.000417741
23 *325:D *36:25 5.33005e-05
24 *326:D *292:A2 2.13761e-05
25 *326:D *36:25 7.74068e-05
26 *327:D *36:10 7.74135e-05
*RES
1 *290:Y *36:10 16.8 
2 *36:10 *301:B2 14.7464 
3 *36:10 *36:25 11.4464 
4 *36:25 *292:A2 21.7643 
5 *36:25 *296:A2 9.3 
*END

*D_NET *37 0.00233827
*CONN
*I *292:B1 I *D sky130_fd_sc_hd__a21oi_1
*I *291:Y O *D sky130_fd_sc_hd__a31oi_1
*CAP
1 *292:B1 0.000576212
2 *291:Y 0.000576212
3 *292:B1 *221:C 2.29031e-05
4 *292:B1 *225:A 0.00021796
5 *292:B1 *258:A3 4.58194e-05
6 *292:B1 *294:B1 2.98475e-05
7 *292:B1 *295:A1 1.24368e-05
8 *292:B1 *295:B1 0.000141813
9 *292:B1 *296:A1 5.56861e-05
10 *292:B1 *300:A1 1.87331e-05
11 *292:B1 *300:D1 2.59355e-05
12 *292:B1 *327:CLK 1.69976e-05
13 *292:B1 *52:83 4.31243e-05
14 *292:B1 *53:18 9.34452e-05
15 *292:B1 *111:72 0.000265633
16 *325:D *292:B1 8.01831e-06
17 *326:D *292:B1 1.00887e-05
18 *327:D *292:B1 7.89362e-05
19 *36:10 *292:B1 2.47319e-05
20 *36:25 *292:B1 7.37367e-05
*RES
1 *291:Y *292:B1 41.0107 
*END

*D_NET *38 0.00154076
*CONN
*I *296:A1 I *D sky130_fd_sc_hd__o21ai_1
*I *293:Y O *D sky130_fd_sc_hd__inv_2
*CAP
1 *296:A1 0.000525891
2 *293:Y 0.000525891
3 *296:A1 *263:A 7.74135e-05
4 *296:A1 *293:A 2.83756e-05
5 *296:A1 *295:A1 1.33907e-05
6 *296:A1 *295:B1 3.44334e-05
7 *296:A1 *335:A 0.000125646
8 *296:A1 *112:27 0
9 *292:A2 *296:A1 8.6229e-06
10 *292:B1 *296:A1 5.56861e-05
11 *325:D *296:A1 0.000127673
12 *326:D *296:A1 1.77381e-05
*RES
1 *293:Y *296:A1 37.1179 
*END

*D_NET *39 0.00129133
*CONN
*I *295:B1 I *D sky130_fd_sc_hd__o2111ai_1
*I *294:Y O *D sky130_fd_sc_hd__a21oi_1
*CAP
1 *295:B1 0.000461
2 *294:Y 0.000461
3 *295:B1 *294:B1 7.20217e-06
4 *295:B1 *295:A1 4.37451e-05
5 *295:B1 *295:D1 3.41517e-06
6 *295:B1 *296:B1 7.6987e-05
7 *295:B1 *104:134 0
8 *295:B1 *111:14 8.43535e-06
9 *292:A2 *295:B1 5.33005e-05
10 *292:B1 *295:B1 0.000141813
11 *296:A1 *295:B1 3.44334e-05
*RES
1 *294:Y *295:B1 26.1 
*END

*D_NET *40 0.000406151
*CONN
*I *296:B1 I *D sky130_fd_sc_hd__o21ai_1
*I *295:Y O *D sky130_fd_sc_hd__o2111ai_1
*CAP
1 *296:B1 9.43278e-05
2 *295:Y 9.43278e-05
3 *296:B1 *295:A1 5.33005e-05
4 *296:B1 *295:A2 2.85234e-05
5 *296:B1 *295:D1 5.38444e-06
6 *295:B1 *296:B1 7.6987e-05
7 *36:25 *296:B1 5.33005e-05
*RES
1 *295:Y *296:B1 20.7964 
*END

*D_NET *41 0.000887838
*CONN
*I *300:A1 I *D sky130_fd_sc_hd__o2111a_1
*I *297:X O *D sky130_fd_sc_hd__and3b_1
*CAP
1 *300:A1 0.000175296
2 *297:X 0.000175296
3 *300:A1 *53:18 0.000197182
4 *300:A1 *111:72 0.000321331
5 *292:B1 *300:A1 1.87331e-05
*RES
1 *297:X *300:A1 32.3321 
*END

*D_NET *42 0.00130729
*CONN
*I *342:A I *D sky130_fd_sc_hd__dlygate4sd3_1
*I *299:B1 I *D sky130_fd_sc_hd__a21oi_1
*I *298:Y O *D sky130_fd_sc_hd__inv_2
*CAP
1 *342:A 0.000161911
2 *299:B1 0
3 *298:Y 0.000302413
4 *42:10 0.000464324
5 *342:A *299:A2 0.000148658
6 *342:A *118:20 1.2814e-05
7 *42:10 *249:A 7.2344e-05
8 *42:10 *298:A 0
9 *42:10 *333:A 0.000126958
10 *42:10 *339:A 0
11 *42:10 *80:20 1.01912e-05
12 *42:10 *117:10 3.54697e-06
13 *42:10 *118:20 4.13122e-06
*RES
1 *298:Y *42:10 19.1214 
2 *42:10 *299:B1 13.8 
3 *42:10 *342:A 16.9964 
*END

*D_NET *43 0.00108813
*CONN
*I *300:A2 I *D sky130_fd_sc_hd__o2111a_1
*I *299:Y O *D sky130_fd_sc_hd__a21oi_1
*CAP
1 *300:A2 0.000320295
2 *299:Y 0.000320295
3 *300:A2 *299:A1 6.93704e-06
4 *300:A2 *299:A2 1.84776e-05
5 *300:A2 *339:A 0.000195213
6 *300:A2 *52:10 2.37944e-05
7 *300:A2 *111:72 0.00015078
8 *300:A2 *118:43 5.23399e-05
*RES
1 *299:Y *300:A2 33.9929 
*END

*D_NET *44 0.000974919
*CONN
*I *301:A2_N I *D sky130_fd_sc_hd__o2bb2ai_1
*I *300:X O *D sky130_fd_sc_hd__o2111a_1
*CAP
1 *301:A2_N 0.000223072
2 *300:X 0.000223072
3 *301:A2_N *225:A 0.000135028
4 *301:A2_N *290:B1 0.000127246
5 *301:A2_N *63:27 0.000266501
*RES
1 *300:X *301:A2_N 32.4214 
*END

*D_NET *45 0.00387587
*CONN
*I *224:A1 I *D sky130_fd_sc_hd__a21oi_1
*I *302:Y O *D sky130_fd_sc_hd__inv_2
*CAP
1 *224:A1 0.00111744
2 *302:Y 0.00111744
3 *224:A1 *224:B1 9.84673e-05
4 *224:A1 *232:A 0.000198624
5 *224:A1 *239:B 0.000192935
6 *224:A1 *244:B 0.000133946
7 *224:A1 *66:12 0.00038481
8 *224:A1 *101:12 0.000355358
9 *224:A1 *101:38 9.83388e-05
10 *224:A1 *114:57 0.000178503
11 *224:A1 *133:24 0
*RES
1 *302:Y *224:A1 47.6536 
*END

*D_NET *46 0.00554689
*CONN
*I *256:A1 I *D sky130_fd_sc_hd__o21bai_1
*I *308:A1 I *D sky130_fd_sc_hd__o21ai_4
*I *284:A1 I *D sky130_fd_sc_hd__o211ai_2
*I *303:X O *D sky130_fd_sc_hd__or2b_4
*CAP
1 *256:A1 0.000385791
2 *308:A1 0.000313928
3 *284:A1 0.000246582
4 *303:X 0.000357295
5 *46:31 0.00079428
6 *46:10 0.000698439
7 *256:A1 *230:A_N 0.000175892
8 *256:A1 *253:A3 0.000303698
9 *256:A1 *253:B1 1.24368e-05
10 *256:A1 *253:C1 8.43535e-06
11 *256:A1 *256:B1_N 3.04901e-05
12 *256:A1 *258:A3 6.09354e-05
13 *256:A1 *52:33 7.19305e-05
14 *256:A1 *83:18 0.000143318
15 *256:A1 *88:31 6.72097e-05
16 *284:A1 *247:A 3.19935e-05
17 *284:A1 *259:C1 3.04861e-05
18 *284:A1 *287:A 6.80127e-05
19 *284:A1 *287:C 0
20 *284:A1 *91:22 2.00115e-05
21 *284:A1 *110:18 2.12087e-05
22 *308:A1 *253:A3 0.000175741
23 *308:A1 *49:18 1.98839e-05
24 *46:10 *247:A 0.000702712
25 *46:10 *270:A2_N 0.000195119
26 *46:10 *287:D 8.67165e-05
27 *46:10 *303:A 2.59355e-05
28 *46:10 *59:10 0.000239022
29 *46:10 *80:112 0.000118084
30 *46:31 *259:C1 4.97548e-05
31 *46:31 *51:8 1.00887e-05
32 *46:31 *80:112 6.11767e-05
33 *46:31 *133:34 2.02794e-05
*RES
1 *303:X *46:10 24.3268 
2 *46:10 *284:A1 17.8446 
3 *46:10 *46:31 6.59821 
4 *46:31 *308:A1 13.9964 
5 *46:31 *256:A1 26.3893 
*END

*D_NET *47 0.0055898
*CONN
*I *228:D I *D sky130_fd_sc_hd__nand4_4
*I *306:A I *D sky130_fd_sc_hd__nand3_4
*I *264:A4 I *D sky130_fd_sc_hd__a41oi_2
*I *304:Y O *D sky130_fd_sc_hd__nor2_4
*CAP
1 *228:D 4.45866e-05
2 *306:A 0.000179646
3 *264:A4 0.000123113
4 *304:Y 0.000422087
5 *47:29 0.000584831
6 *47:10 0.000905799
7 *228:D *62:54 4.85294e-05
8 *264:A4 *227:A_N 9.03157e-05
9 *264:A4 *61:8 5.66971e-05
10 *264:A4 *109:56 0
11 *306:A *247:A 0.000194667
12 *306:A *306:C 5.85349e-05
13 *306:A *80:114 6.57032e-05
14 *47:10 *227:A_N 3.84084e-05
15 *47:10 *272:A 5.28286e-05
16 *47:10 *272:B 5.49995e-05
17 *47:10 *273:A3 0.000398136
18 *47:10 *275:A3 0.000181644
19 *47:10 *304:B 9.58126e-05
20 *47:10 *48:23 4.88537e-05
21 *47:10 *104:58 0.000261845
22 *47:10 *105:18 6.19365e-05
23 *47:10 *105:20 9.84729e-05
24 *47:10 *106:18 1.51571e-05
25 *47:29 *48:23 0.000300182
26 *47:29 *48:74 0.000293632
27 *47:29 *62:54 4.45956e-05
28 *47:29 *108:10 0.000125593
29 *47:29 *108:51 2.59355e-05
30 *47:29 *108:62 0.000234822
31 *276:B2 *264:A4 0.000145492
32 *276:B2 *47:10 0.000320741
33 *279:A1 *264:A4 1.62025e-05
*RES
1 *304:Y *47:10 26.05 
2 *47:10 *264:A4 16.9964 
3 *47:10 *47:29 13.3929 
4 *47:29 *306:A 22.2107 
5 *47:29 *228:D 10.2643 
*END

*D_NET *48 0.00784387
*CONN
*I *306:B I *D sky130_fd_sc_hd__nand3_4
*I *228:B I *D sky130_fd_sc_hd__nand4_4
*I *264:A2 I *D sky130_fd_sc_hd__a41oi_2
*I *277:A I *D sky130_fd_sc_hd__nor3_1
*I *278:A1 I *D sky130_fd_sc_hd__o21a_1
*I *274:A1 I *D sky130_fd_sc_hd__o21a_1
*I *305:Y O *D sky130_fd_sc_hd__inv_2
*CAP
1 *306:B 0.000140436
2 *228:B 2.13188e-05
3 *264:A2 1.69531e-05
4 *277:A 0.000492956
5 *278:A1 1.54781e-05
6 *274:A1 7.86489e-05
7 *305:Y 0
8 *48:74 0.000326271
9 *48:37 0.00100989
10 *48:27 0.00061091
11 *48:23 0.000919052
12 *48:4 0.000740689
13 *228:B *306:C 5.48715e-05
14 *228:B *79:8 5.48715e-05
15 *264:A2 *61:8 5.33005e-05
16 *274:A1 *274:B1 4.4873e-05
17 *274:A1 *276:A1 1.02132e-05
18 *274:A1 *107:14 1.32056e-05
19 *277:A *277:B 5.33005e-05
20 *277:A *285:A1 5.52238e-05
21 *277:A *289:B2 4.24291e-05
22 *277:A *109:20 3.94822e-05
23 *278:A1 *278:B1 9.99853e-05
24 *278:A1 *285:A2 9.83388e-05
25 *306:B *306:C 0.000143967
26 *306:B *79:8 0.000136374
27 *306:B *80:114 0.000139208
28 *48:23 *227:A_N 0.000100248
29 *48:23 *276:A1 7.45176e-05
30 *48:23 *349:A 0.000124687
31 *48:23 *107:14 1.02937e-05
32 *48:27 *228:A 0.00016777
33 *48:37 *228:A 8.6229e-06
34 *48:37 *276:A2 0
35 *48:37 *279:B1 0.000514377
36 *48:37 *281:A2 3.41242e-06
37 *48:37 *62:24 1.31942e-05
38 *48:37 *109:56 0
39 *279:A1 *277:A 1.12578e-05
40 *289:B1 *277:A 0.000173159
41 *328:A *264:A2 5.33005e-05
42 *30:18 *48:27 0.000204936
43 *30:18 *48:37 4.04292e-05
44 *32:16 *277:A 0.000115591
45 *32:28 *277:A 0.000173159
46 *47:10 *48:23 4.88537e-05
47 *47:29 *48:23 0.000300182
48 *47:29 *48:74 0.000293632
*RES
1 *305:Y *48:4 9.3 
2 *48:4 *274:A1 10.9786 
3 *48:4 *48:23 18.8036 
4 *48:23 *48:27 7.35714 
5 *48:27 *48:37 10.6419 
6 *48:37 *278:A1 14.7464 
7 *48:37 *277:A 22.1393 
8 *48:27 *264:A2 14.3357 
9 *48:23 *48:74 7.5 
10 *48:74 *228:B 14.5321 
11 *48:74 *306:B 17.5321 
*END

*D_NET *49 0.00530393
*CONN
*I *284:A2 I *D sky130_fd_sc_hd__o211ai_2
*I *256:A2 I *D sky130_fd_sc_hd__o21bai_1
*I *308:A2 I *D sky130_fd_sc_hd__o21ai_4
*I *306:Y O *D sky130_fd_sc_hd__nand3_4
*CAP
1 *284:A2 0
2 *256:A2 0.00052076
3 *308:A2 0
4 *306:Y 0.000436456
5 *49:18 0.000684438
6 *49:10 0.000600134
7 *256:A2 *241:B 4.15526e-05
8 *256:A2 *253:A3 5.33005e-05
9 *256:A2 *259:A2 9.86042e-05
10 *256:A2 *259:C1 0.000173371
11 *256:A2 *55:52 0.000201076
12 *256:A2 *80:20 0.0001992
13 *256:A2 *80:26 0.000245657
14 *256:A2 *88:14 0.000595428
15 *256:A2 *133:34 3.1518e-05
16 *256:A2 *133:53 4.18351e-05
17 *49:10 *274:B1 1.24368e-05
18 *49:10 *281:A2 0
19 *49:10 *329:A 0.000146704
20 *49:10 *330:A 0.000362562
21 *49:10 *62:8 2.6304e-05
22 *49:10 *62:24 8.88152e-05
23 *49:10 *80:114 0.000122591
24 *49:18 *253:A3 0.000120743
25 *49:18 *281:B1 6.05161e-06
26 *49:18 *284:B1 1.177e-05
27 *49:18 *284:C1 2.06178e-05
28 *49:18 *329:A 0.000141923
29 *49:18 *55:52 2.26499e-05
30 *49:18 *80:43 0.000178425
31 *289:A3 *49:18 9.91224e-05
32 *308:A1 *49:18 1.98839e-05
*RES
1 *306:Y *49:10 21.9607 
2 *49:10 *49:18 9.05357 
3 *49:18 *308:A2 9.3 
4 *49:18 *256:A2 29.9821 
5 *49:10 *284:A2 13.8 
*END

*D_NET *50 0.00551716
*CONN
*I *290:A2 I *D sky130_fd_sc_hd__a211oi_2
*I *229:B2 I *D sky130_fd_sc_hd__a22oi_4
*I *241:B I *D sky130_fd_sc_hd__and3_1
*I *308:B1 I *D sky130_fd_sc_hd__o21ai_4
*I *307:X O *D sky130_fd_sc_hd__and2b_2
*CAP
1 *290:A2 0
2 *229:B2 0.00025518
3 *241:B 0.000489036
4 *308:B1 0.000443868
5 *307:X 0.000170911
6 *50:38 0.00043449
7 *50:23 0.000668345
8 *50:6 0.00061478
9 *229:B2 *267:A1 0.000145662
10 *229:B2 *290:A1 9.58126e-05
11 *229:B2 *52:118 1.12669e-05
12 *229:B2 *55:22 0.000135573
13 *229:B2 *55:24 3.29297e-05
14 *229:B2 *55:136 2.59355e-05
15 *229:B2 *100:8 4.93118e-06
16 *241:B *234:A2 0
17 *241:B *234:B1 4.09403e-05
18 *241:B *245:A3 0
19 *241:B *245:B1 5.04226e-05
20 *241:B *291:A1 3.31279e-05
21 *241:B *315:CLK 0
22 *241:B *57:36 5.25759e-05
23 *241:B *63:27 0
24 *241:B *69:56 7.5638e-05
25 *241:B *87:8 0.000153739
26 *241:B *88:31 0.000268285
27 *308:B1 *230:A_N 1.50961e-05
28 *308:B1 *253:A1 2.12647e-05
29 *308:B1 *253:A3 0.000157294
30 *308:B1 *253:B1 3.05605e-05
31 *308:B1 *253:C1 0.000137639
32 *308:B1 *53:44 1.03904e-05
33 *308:B1 *55:38 3.04901e-05
34 *308:B1 *55:52 0.00019094
35 *308:B1 *80:112 5.43178e-05
36 *308:B1 *118:43 3.69047e-06